[General]
network = FinalTask
description = "Communication Network FINAL TASK"

sim-time-limit = ${time=100, 500, 1000}s
warmup-period = 0s
repeat = 1

# Measurement Settings
**.channel.throughput.result-recording-modes = +last
**.channel.queueLength.result-recording-modes = +last
**.vector-recording = false

cmdenv-interactive = true


###############################################################################

# ppp.queues in Routers

**.ppp[*].ppp.queue.typename = "DropTailQueue" # in routers
**.ppp[*].ppp.queue.packetCapacity = 70

# WLAN settings

**.opMode = "g(mixed)"
**.channelNumber = 0

**.wlan[*].bitrate = 54Mbps
**.wlan[*].mac.dcf.rtsPolicy.rtsThreshold = 3000B
**.address = "auto"

# Network area
**.constraintAreaMinX = 0m
**.constraintAreaMinY = 0m
**.constraintAreaMinZ = 0m
**.constraintAreaMaxX = 250m
**.constraintAreaMaxY = 30m
**.constraintAreaMaxZ = 0m

#AP Position
**.AP.mobility.typename = "StationaryMobility"
**.AP.mobility.initialX = 125m
**.AP.mobility.initialY = 15m
**.AP.mobility.initialZ = 0m

**.initFromDisplayString = false

###############################################################################
# TCP Settings
**.tcp.typename = "Tcp"
**.tcpAlgorithmClass = "TcpNewReno"
**.tcp.mss = 1460 # MTU - IP header - TCP header = 1500B - 20B - 20B = 1460B
**.dataTransferMode = "object"
**.tcp.advertisedWindow = 1000 * this.mss  #upper bounded at max CWND for 100 packets
**.tcp.windowScalingSupport = true # enabled since advertisedWindow > DEFINE_MAX

###############################################################################
# HTTP Server Settings - see the trace file for more details
**.HTTPServer.numApps = 1 # number of applications on the server
**.HTTPServer.app[0].typename="TcpGenericServerApp" # Server application type
**.HTTPServer.app[0].localPort = 10021 # TCP server listen port, default is 1000

###############################################################################
# HTTP Client Request/Response Settings
**.Client[*].numApps = 1 # number of applications on the user
**.Client[*].app[0].typename = "TcpBasicClientApp" # Internet acces application type

**.Client[*].app[0].connectAddress = "HTTPServer" # destination address
**.Client[*].app[0].connectPort = 10021 # destination port, default is 1000
**.Client[*].app[0].replyLength = 1B * int(truncnormal(658800)) # ASSUMPTION
**.Client[*].app[0].requestLength = 254B
**.Client[*].app[0].idleInterval = 3s # waiting time before next request issued
**.Client[*].app[0].thinkTime = 0s
**.Client[*].app[0].startTime = uniform(0s,1s)


###############################################################################
# Uploading FTP Client Settings
**.FTPUploadStudent.numApps = 1          
**.FTPUploadStudent.app[0].typename = "TcpSessionApp"
**.FTPUploadStudent.app[0].active = true
**.FTPUploadStudent.app[0].connectAddress = "FTPServer"

**.FTPUploadStudent.app[0].connectPort = 21
**.FTPUploadStudent.app[0].sendBytes = 100GB 

###############################################################################
# Lecturer's FTP Server Settings
**.FTPServer.numApps = 1 # number of applications on the server
**.FTPServer.app[0].typename="TcpSinkApp" # Server application type
**.FTPServer.app[0].localPort = 21

###############################################################################
# Video Conference Setup

**.Professor.numApps = 1 # number of applications on the lecturer
**.Student.numApps = 1 # number of applications on on the video lecture student

**.Professor.app[0].typename = "VideoConfApp" # Video conference application type
**.Professor.app[0].destPort = 100 # destination port
**.Professor.app[0].localPort = 100 # listen port
**.Professor.app[0].messageLength = 1400B + 12B # 1400B of payload + RTP protocol headers, IP+UDP headers included via simulation
**.Professor.app[0].sendInterval = 0.04s # One video packet sent every every 40ms
#**.Professor.app[0].startTime = exponential(0.001s)

**.Student.app[0].typename = "VideoConfApp" # Video conference application type
**.Student.app[0].destPort = 100 # destination port
**.Student.app[0].localPort = 100 # listen port
**.Student.app[0].messageLength = 1400B + 12B # 1400B of payload + RTP protocol headers, IP+UDP headers included via simulation
**.Student.app[0].sendInterval = 0.04s # One video packet sent every every 40ms

**.Professor.app[0].destAddresses = "Student"
**.Student.app[0].destAddresses = "Professor"

#####################################################################################################
#####################################################################################################
###############################  DIFFERENT  CONFIGURATION  SCENARIOS  ###############################
#####################################################################################################
#####################################################################################################

# Scenario 1 