[General]
network = FinalTask
description = "Communication Network FINAL TASK"

sim-time-limit = ${time=1000}s
warmup-period = 0s
cmdenv-interactive = true

###############################################################################
############################ Measurement Settings #############################
###############################################################################
**.channel.throughput.result-recording-modes = +vector,+last
**.channel.queueLength.result-recording-modes = +vector,+last
**.vector-recording = true

###############################################################################
############################### Router Settings ###############################
###############################################################################
**.ppp[*].ppp.queue.typename = "DropTailQueue" # in routers
**.ppp[*].ppp.queue.packetCapacity = 70

###############################################################################
################################ WLAN Settings ################################
###############################################################################
**.opMode = "g(mixed)"
**.channelNumber = 0
**.wlan[*].bitrate = 54Mbps
**.wlan[*].mac.dcf.rtsPolicy.rtsThreshold = 3000B
**.address = "auto"

# Network Area
**.constraintAreaMinX = 0m
**.constraintAreaMinY = 0m
**.constraintAreaMinZ = 0m
**.constraintAreaMaxX = 250m
**.constraintAreaMaxY = 30m
**.constraintAreaMaxZ = 0m

# Access Point Position
**.AP.mobility.typename = "StationaryMobility"
**.AP.mobility.initialX = 125m
**.AP.mobility.initialY = 15m
**.AP.mobility.initialZ = 0m

**.initFromDisplayString = false


###############################################################################
################################ TCP Settings #################################
###############################################################################
**.tcp.typename = "Tcp"
**.tcpAlgorithmClass = "TcpNewReno"
**.tcp.mss = 1460 # MTU - IP header - TCP header = 1500B - 20B - 20B = 1460B
**.dataTransferMode = "object"
**.tcp.advertisedWindow = 1000 * this.mss  #upper bounded at max CWND for 100 packets
**.tcp.windowScalingSupport = true # enabled since advertisedWindow > DEFINE_MAX


###############################################################################
######################## Lecturer's FTP Server Settings #######################
###############################################################################
**.FTPServer.numApps = 1 # number of applications on the server
**.FTPServer.app[0].typename="TcpSinkApp" # Server application type
**.FTPServer.app[0].localPort = 21


###############################################################################
######### HTTP Server Settings - see the trace file for more details ##########
###############################################################################
**.HTTPServer.numApps = 1 # number of applications on the server
**.HTTPServer.app[0].typename="TcpGenericServerApp" # Server application type
**.HTTPServer.app[0].localPort = 10021 # TCP server listen port, default is 1000

###############################################################################
########################### Video Conference Setup #############################
###############################################################################
**.Professor.numApps = 1 # number of applications on the lecturer
**.Student.numApps = 1 # number of applications on on the video lecture student

**.Professor.app[0].typename = "VideoConfApp" # Video conference application type
**.Professor.app[0].destPort = 100 # destination port
**.Professor.app[0].localPort = 100 # listen port
**.Professor.app[0].messageLength = 1400B + 12B # 1400B of payload + RTP protocol headers, IP+UDP headers included via simulation
**.Professor.app[0].sendInterval = 0.04s # One video packet sent every every 40ms
#**.Professor.app[0].startTime = exponential(0.001s)

**.Student.app[0].typename = "VideoConfApp" # Video conference application type
**.Student.app[0].destPort = 100 # destination port
**.Student.app[0].localPort = 100 # listen port
**.Student.app[0].messageLength = 1400B + 12B # 1400B of payload + RTP protocol headers, IP+UDP headers included via simulation
**.Student.app[0].sendInterval = 0.04s # One video packet sent every every 40ms

**.Professor.app[0].destAddresses = "Student"
**.Student.app[0].destAddresses = "Professor"

#####################################################################################################
#####################################################################################################
################################  Video Conferencing QoS Comparison  ################################
#####################################################################################################
#####################################################################################################

# VIDEO CONFERENCING WITH STUDENT UPLOADING VIA FTP ONLY
[Config VC_with_FTP_Only]
repeat = 1

# FTP Client Settings
**.FTPUploadStudent.numApps = 1          
**.FTPUploadStudent.app[0].typename = "TcpSessionApp"
**.FTPUploadStudent.app[0].active = true
**.FTPUploadStudent.app[0].connectAddress = "FTPServer"

**.FTPUploadStudent.app[0].connectPort = 21
**.FTPUploadStudent.app[0].sendBytes = 1000MiB


# VIDEO CONFERENCING WITH HTTP CLIENTS ONLY
[Config VC_with_HTTP_Only]
repeat = 1

# HTTP Client Request/Response Settings
**.Client[*].numApps = 1 # number of applications on the user
**.Client[*].app[0].typename = "TcpBasicClientApp" # Internet acces application type

**.Client[*].app[0].connectAddress = "HTTPServer" # destination address
**.Client[*].app[0].connectPort = 10021 # destination port, default is 1000
**.Client[*].app[0].replyLength = 1B * int(truncnormal(658800,64400)) # ASSUMPTION

**.Client[*].app[0].requestLength = 254B # QTENV - NEED TO CONFIRM IF HEADER SIZE IS ~8KB

**.Client[*].app[0].idleInterval = 3s # waiting time before next request issued
**.Client[*].app[0].thinkTime = 0s
**.Client[*].app[0].startTime = uniform(0s,1s)


# VIDEO CONFERENCING WITH FTP AND HTTP
[Config VC_with_FTP_and_HTTP]
repeat = 1

# FTP Client Settings
**.FTPUploadStudent.numApps = 1          
**.FTPUploadStudent.app[0].typename = "TcpSessionApp"
**.FTPUploadStudent.app[0].active = true
**.FTPUploadStudent.app[0].connectAddress = "FTPServer"

**.FTPUploadStudent.app[0].connectPort = 21
**.FTPUploadStudent.app[0].sendBytes = 1000MiB

# HTTP Client Request/Response Settings
**.Client[*].numApps = 1 # number of applications on the user
**.Client[*].app[0].typename = "TcpBasicClientApp" # Internet acces application type

**.Client[*].app[0].connectAddress = "HTTPServer" # destination address
**.Client[*].app[0].connectPort = 10021 # destination port, default is 1000
**.Client[*].app[0].replyLength = 1B * int(truncnormal(658800,64400)) # ASSUMPTION

**.Client[*].app[0].requestLength = 254B # QTENV - NEED TO CONFIRM IF HEADER SIZE IS ~8KB

**.Client[*].app[0].idleInterval = 3s # waiting time before next request issued
**.Client[*].app[0].thinkTime = 0s
**.Client[*].app[0].startTime = uniform(0s,1s)


#####################################################################################################
#####################################################################################################
###############################  DIFFERENT  CONFIGURATION  SCENARIOS  ###############################
#####################################################################################################
#####################################################################################################

# SCENARIO 01 - VDSL Upstream Bandwidth Decrease
[Config VDSL_UpBW_Decrease_S01]
repeat = 1
**.upLinkVDSL = 8 Mbps
extends = VC_with_FTP_and_HTTP

# SCENARIO 02 - ADSL Downstream Bandwidth Increase (Slight); ADSL speeds are typically 1 to 40 Mbps
[Config ADSL_DownBW_SlightIncrease_S02]
repeat = 1
**.downLinkADSL = 10 Mbps
extends = VC_with_FTP_and_HTTP

# SCENARIO 03 - ADSL Downstream Bandwidth Increase (Major); ADSL speeds are typically 1 to 40 Mbps
[Config ADSL_DownBW_MajorIncrease_S03]
repeat = 1
**.downLinkADSL = 24 Mbps
extends = VC_with_FTP_and_HTTP

# SCENARIO 04 - Video conferencing with large number of HTTP clients (12)
[Config HTTP_Client_Increase_S04]
repeat = 1
**.numClient = 12 # Default value x 3
extends = VC_with_FTP_and_HTTP

# SCENARIO 05 - Video conferencing with only one HTTP client
[Config HTTP_Client_Decrease_S05]
repeat = 1
**.numClient = 1 # Default value - 3
extends = VC_with_FTP_and_HTTP