[General]
network = Exercise7
description = "Communication Network Evaluation"

sim-time-limit = ${timelimit= 100}s

# Measurement Settings
**.channel.throughput.result-recording-modes = +last,+timeavg
**.channel.queueLength.result-recording-modes = +last,+timeavg
**.vector-recording = false
cmdenv-interactive = true
repeat = 1
# TCP Settings
**.tcp.typename = "Tcp"
**.tcpAlgorithmClass = "TcpNewReno"
**.tcp.mss = 1000 # MTU - IP header - TCP header = 1040B - 20B - 20B = 1000B
**.tcp.advertisedWindow = 100 * this.mss  #upper bounded at max CWND for 100 packets
**.tcp.windowScalingSupport = true # enabled since advertisedWindow > DEFINE_MAX

# General Server Settings
**.server.numApps = 1 # number of applications on the server
**.server.app[0].typename="TcpGenericServerApp" # Server application type
**.server.app[0].localPort = 10021 # TCP server listen port, default is 1000

# Router Settings
**.ppp[*].ppp.queue.typename = "DropTailQueue"
**.ppp[*].ppp.queue.packetCapacity = 40  # packet maximum capacity buffer

# TCP Configurations

# This configuration extends the parameters of the base configuration, TCP, for ISDN. 
[Config ISDN01_for_Internet]
description = "125 users, 5 Access routers and 1 Backbone router"
**.dataRate = 64 kbps
**.user[*].numApps = 1 # number of applications on the user
**.user[*].app[0].typename = "TcpBasicClientApp" # Internet acces application type

**.user[*].app[0].connectAddress = "server" # destination address
**.user[*].app[0].connectPort = 10021 # destination port, default is 1000
**.user[*].app[0].replyLength = 1B * int(exponential(150000))
**.user[*].app[0].idleInterval = exponential(30s)
**.user[*].app[0].thinkTime = 0

**.numUsersPerAccRouter = 25
**.numBBrouterPerGateway = 1
**.numAroutersPerBBRouter = 5
repeat = 10


[Config ISDN02_for_Internet]
description = "375 users, 15 Access routers and 3 Backbone router"
**.dataRate = 64 kbps
**.user[*].numApps = 1 # number of applications on the user
**.user[*].app[0].typename = "TcpBasicClientApp" # Internet acces application type

**.user[*].app[0].connectAddress = "server" # destination address
**.user[*].app[0].connectPort = 10021 # destination port, default is 1000
**.user[*].app[0].replyLength = 1B * int(exponential(150000))
**.user[*].app[0].idleInterval = exponential(30s)
**.user[*].app[0].thinkTime = 0

**.numUsersPerAccRouter = 25
**.numBBrouterPerGateway = 3
**.numAroutersPerBBRouter = 5
repeat = 10


[Config ISDN03_for_Internet]
description = "625 users, 25 Access routers and 5 Backbone router"
**.dataRate = 64 kbps
**.user[*].numApps = 1 # number of applications on the user
**.user[*].app[0].typename = "TcpBasicClientApp" # Internet acces application type

**.user[*].app[0].connectAddress = "server" # destination address
**.user[*].app[0].connectPort = 10021 # destination port, default is 1000
**.user[*].app[0].replyLength = 1B * int(exponential(150000))
**.user[*].app[0].idleInterval = exponential(30s)
**.user[*].app[0].thinkTime = 0

**.numUsersPerAccRouter = 25
**.numBBrouterPerGateway = 5
**.numAroutersPerBBRouter = 5
repeat = 10

[Config ISDN04_for_Internet]
description = "75 users, 5 Access routers and 1 Backbone router"
**.dataRate = 64 kbps
**.user[*].numApps = 1 # number of applications on the user
**.user[*].app[0].typename = "TcpBasicClientApp" # Internet acces application type

**.user[*].app[0].connectAddress = "server" # destination address
**.user[*].app[0].connectPort = 10021 # destination port, default is 1000
**.user[*].app[0].replyLength = 1B * int(exponential(150000))
**.user[*].app[0].idleInterval = exponential(30s)
**.user[*].app[0].thinkTime = 0

**.numUsersPerAccRouter = 15
**.numBBrouterPerGateway = 1
**.numAroutersPerBBRouter = 5
repeat = 10


[Config ISDN05_for_Internet]
description = "150 users, 15 Access routers and 3 Backbone router"
**.dataRate = 64 kbps
**.user[*].numApps = 1 # number of applications on the user
**.user[*].app[0].typename = "TcpBasicClientApp" # Internet acces application type

**.user[*].app[0].connectAddress = "server" # destination address
**.user[*].app[0].connectPort = 10021 # destination port, default is 1000
**.user[*].app[0].replyLength = 1B * int(exponential(150000))
**.user[*].app[0].idleInterval = exponential(30s)
**.user[*].app[0].thinkTime = 0

**.numUsersPerAccRouter = 10
**.numBBrouterPerGateway = 3
**.numAroutersPerBBRouter = 5
repeat = 10


[Config ISDN06_for_Internet]
description = "125 users, 25 Access routers and 5 Backbone router"
**.dataRate = 64 kbps
**.user[*].numApps = 1 # number of applications on the user
**.user[*].app[0].typename = "TcpBasicClientApp" # Internet acces application type

**.user[*].app[0].connectAddress = "server" # destination address
**.user[*].app[0].connectPort = 10021 # destination port, default is 1000
**.user[*].app[0].replyLength = 1B * int(exponential(150000))
**.user[*].app[0].idleInterval = exponential(30s)
**.user[*].app[0].thinkTime = 0

**.numUsersPerAccRouter = 5
**.numBBrouterPerGateway = 5
**.numAroutersPerBBRouter = 5
repeat = 10


[Config ISDN_for_VoIP_and_Internet_Best_Case]
**.dataRate = 64 kbps

**.user[25..624].numApps = 1 # number of applications on the user

**.user[25..624].app[0].typename = "TcpBasicClientApp" # Internet acces application type
**.user[25..624].app[0].connectAddress = "server" # destination address
**.user[25..624].app[0].connectPort = 10021 # destination port, default is 1000
**.user[25..624].app[0].replyLength = 1B * int(exponential(150000))
**.user[25..624].app[0].idleInterval = exponential(30s)
**.user[25..624].app[0].thinkTime = 0

**.user[0..24].numApps = 1
**.user[0..24].app[0].typename = "VoIPApp" # VoIP custom application type
**.user[0..24].app[0].destAddresses = "user[1] user[2] user[3] user[4] user[5] user[6] user[7] user[8] user[9] user[10] user[11] user[12] user[13] user[14] user[15] user[16] user[17] user[18] user[19] user[20] user[21] user[22] user[23] user[24]"
**.user[0..24].app[0].destPort = 100 # destination port
**.user[0..24].app[0].localPort = 100 # listen port
**.user[0..24].app[0].messageLength = 32B+ 12B #32B of payload + IP|UDP|RTP protocol headers
**.user[0..24].app[0].acceptableDelay = 200ms # max acceptable 'end-to-end' delay in VoIP application
**.user[0..24].app[0].sendInterval = 0.02s # 50pps rate; sends a packet every 0.02s


[Config DSL_for_VoIP_and_Internet_Best_Case]
**.dataRate = 2 Mbps

**.user[25..624].numApps = 1 # number of applications on the user

**.user[25..624].app[0].typename = "TcpBasicClientApp" # Internet acces application type
**.user[25..624].app[0].connectAddress = "server" # destination address
**.user[25..624].app[0].connectPort = 10021 # destination port, default is 1000
**.user[25..624].app[0].replyLength = 1B * int(exponential(150000))
**.user[25..624].app[0].idleInterval = exponential(30s)
**.user[25..624].app[0].thinkTime = 0

**.user[0..24].numApps = 1
**.user[0..24].app[0].typename = "VoIPApp" # VoIP custom application type
**.user[0..24].app[0].destAddresses = "user[1] user[2] user[3] user[4] user[5] user[6] user[7] user[8] user[9] user[10] user[11] user[12] user[13] user[14] user[15] user[16] user[17] user[18] user[19] user[20] user[21] user[22] user[23] user[24]"
**.user[0..24].app[0].destPort = 100 # destination port
**.user[0..24].app[0].localPort = 100 # listen port
**.user[0..24].app[0].messageLength = 32B+ 12B #32B of payload + IP|UDP|RTP protocol headers
**.user[0..24].app[0].acceptableDelay = 200ms # max acceptable 'end-to-end' delay in VoIP application
**.user[0..24].app[0].sendInterval = 0.02s # 50pps rate; sends a packet every 0.02s


[Config DSL01_for_Internet]
description = "125 users, 5 Access routers and 1 Backbone router"
**.dataRate = 2 Mbps
**.user[*].numApps = 1 # number of applications on the user
**.user[*].app[0].typename = "TcpBasicClientApp" # Internet acces application type

**.user[*].app[0].connectAddress = "server" # destination address
**.user[*].app[0].connectPort = 10021 # destination port, default is 1000
**.user[*].app[0].replyLength = 1B * int(exponential(150000))
**.user[*].app[0].idleInterval = exponential(30s)
**.user[*].app[0].thinkTime = 0

**.numUsersPerAccRouter = 25
**.numBBrouterPerGateway = 1
**.numAroutersPerBBRouter = 5
repeat = 10


[Config DSL02_for_Internet]
description = "375 users, 5 Access routers and 3 Backbone router"
**.dataRate = 2 Mbps
**.user[*].numApps = 1 # number of applications on the user
**.user[*].app[0].typename = "TcpBasicClientApp" # Internet acces application type

**.user[*].app[0].connectAddress = "server" # destination address
**.user[*].app[0].connectPort = 10021 # destination port, default is 1000
**.user[*].app[0].replyLength = 1B * int(exponential(150000))
**.user[*].app[0].idleInterval = exponential(30s)
**.user[*].app[0].thinkTime = 0

**.numUsersPerAccRouter = 25
**.numBBrouterPerGateway = 3
**.numAroutersPerBBRouter = 5
repeat = 10


[Config DSL03_for_Internet]
description = "625 users, 5 Access routers and 5 Backbone router"
**.dataRate = 2 Mbps
**.user[*].numApps = 1 # number of applications on the user
**.user[*].app[0].typename = "TcpBasicClientApp" # Internet acces application type

**.user[*].app[0].connectAddress = "server" # destination address
**.user[*].app[0].connectPort = 10021 # destination port, default is 1000
**.user[*].app[0].replyLength = 1B * int(exponential(150000))
**.user[*].app[0].idleInterval = exponential(30s)
**.user[*].app[0].thinkTime = 0

**.numUsersPerAccRouter = 25
**.numBBrouterPerGateway = 5
**.numAroutersPerBBRouter = 5
repeat = 10

[Config DSL04_for_Internet]
description = "75 users, 5 Access routers and 1 Backbone router"
**.dataRate = 2 Mbps
**.user[*].numApps = 1 # number of applications on the user
**.user[*].app[0].typename = "TcpBasicClientApp" # Internet acces application type

**.user[*].app[0].connectAddress = "server" # destination address
**.user[*].app[0].connectPort = 10021 # destination port, default is 1000
**.user[*].app[0].replyLength = 1B * int(exponential(150000))
**.user[*].app[0].idleInterval = exponential(30s)
**.user[*].app[0].thinkTime = 0

**.numUsersPerAccRouter = 15
**.numBBrouterPerGateway = 1
**.numAroutersPerBBRouter = 5
repeat = 10


[Config DSL05_for_Internet]
description = "150 users, 15 Access routers and 3 Backbone router"
**.dataRate = 2 Mbps
**.user[*].numApps = 1 # number of applications on the user
**.user[*].app[0].typename = "TcpBasicClientApp" # Internet acces application type

**.user[*].app[0].connectAddress = "server" # destination address
**.user[*].app[0].connectPort = 10021 # destination port, default is 1000
**.user[*].app[0].replyLength = 1B * int(exponential(150000))
**.user[*].app[0].idleInterval = exponential(30s)
**.user[*].app[0].thinkTime = 0

**.numUsersPerAccRouter = 10
**.numBBrouterPerGateway = 3
**.numAroutersPerBBRouter = 5
repeat = 10


[Config DSL06_for_Internet]
description = "125 users, 25 Access routers and 5 Backbone router"
**.dataRate = 2 Mbps
**.user[*].numApps = 1 # number of applications on the user
**.user[*].app[0].typename = "TcpBasicClientApp" # Internet acces application type

**.user[*].app[0].connectAddress = "server" # destination address
**.user[*].app[0].connectPort = 10021 # destination port, default is 1000
**.user[*].app[0].replyLength = 1B * int(exponential(150000))
**.user[*].app[0].idleInterval = exponential(30s)
**.user[*].app[0].thinkTime = 0

**.numUsersPerAccRouter = 5
**.numBBrouterPerGateway = 5
**.numAroutersPerBBRouter = 5
repeat = 10

[Config ISDN_for_VoIP_and_Internet_Worse_Case]

**.dataRate =64 kbps

**.user[1..24].numApps = 1 # number of applications on the user
**.user[1..24].app[0].typename = "TcpBasicClientApp" # Internet acces application type
**.user[1..24].app[0].connectAddress = "server" # destination address
**.user[1..24].app[0].connectPort = 10021 # destination port, default is 1000
**.user[1..24].app[0].replyLength = 1B * int(exponential(150000))
**.user[1..24].app[0].idleInterval = exponential(30s)
**.user[1..24].app[0].thinkTime = 0

**.user[0].numApps = 1
**.user[0].app[0].typename = "VoIPApp" # VoIP custom application type
**.user[0].app[0].destAddresses = "user[0] user[25] user[50] user[75]" #user[100] user[125] user[150] user[175] user[200] user[225] user[250] user[275] user[300] user[325] user[350] user[375] user[400] user[425] user[450] user[475] user[500] user[525] user[550] user[575] user[600]"
**.user[0].app[0].destPort = 100 # destination port
**.user[0].app[0].localPort = 100 # listen port
**.user[0].app[0].messageLength = 32B+ 12B #32B of payload + IP|UDP|RTP protocol headers
**.user[0].app[0].acceptableDelay = 200ms # max acceptable 'end-to-end' delay in VoIP application
**.user[0].app[0].sendInterval = 0.02s # 50pps rate; sends a packet every 0.02s

**.user[26..49].numApps = 1 # number of applications on the user
**.user[26..49].app[0].typename = "TcpBasicClientApp" # Internet acces application type
**.user[26..49].app[0].connectAddress = "server" # destination address
**.user[26..49].app[0].connectPort = 10021 # destination port, default is 1000
**.user[26..49].app[0].replyLength = 1B * int(exponential(150000))
**.user[26..49].app[0].idleInterval = exponential(30s)
**.user[26..49].app[0].thinkTime = 0

**.user[25].numApps = 1
**.user[25].app[0].typename = "VoIPApp" # VoIP custom application type
**.user[25].app[0].destAddresses = "user[0] user[25] user[50] user[75]" #user[100] user[125] user[150] user[175] user[200] user[225] user[250] user[275] user[300] user[325] user[350] user[375] user[400] user[425] user[450] user[475] user[500] user[525] user[550] user[575] user[600]"
**.user[25].app[0].destPort = 100 # destination port
**.user[25].app[0].localPort = 100 # listen port
**.user[25].app[0].messageLength = 32B+ 12B #32B of payload + IP|UDP|RTP protocol headers
**.user[25].app[0].acceptableDelay = 200ms # max acceptable 'end-to-end' delay in VoIP application
**.user[25].app[0].sendInterval = 0.02s # 50pps rate; sends a packet every 0.02s

**.user[51..74].numApps = 1 # number of applications on the user
**.user[51..74].app[0].typename = "TcpBasicClientApp" # Internet acces application type
**.user[51..74].app[0].connectAddress = "server" # destination address
**.user[51..74].app[0].connectPort = 10021 # destination port, default is 1000
**.user[51..74].app[0].replyLength = 1B * int(exponential(150000))
**.user[51..74].app[0].idleInterval = exponential(30s)
**.user[51..74].app[0].thinkTime = 0

**.user[50].numApps = 1
**.user[50].app[0].typename = "VoIPApp" # VoIP custom application type
**.user[50].app[0].destAddresses = "user[0] user[25] user[50] user[75]" #user[100] user[125] user[150] user[175] user[200] user[225] user[250] user[275] user[300] user[325] user[350] user[375] user[400] user[425] user[450] user[475] user[500] user[525] user[550] user[575] user[600]"
**.user[50].app[0].destPort = 100 # destination port
**.user[50].app[0].localPort = 100 # listen port
**.user[50].app[0].messageLength = 32B+ 12B #32B of payload + IP|UDP|RTP protocol headers
**.user[50].app[0].acceptableDelay = 200ms # max acceptable 'end-to-end' delay in VoIP application
**.user[50].app[0].sendInterval = 0.02s # 50pps rate; sends a packet every 0.02s

**.user[76..99].numApps = 1 # number of applications on the user
**.user[76..99].app[0].typename = "TcpBasicClientApp" # Internet acces application type
**.user[76..99].app[0].connectAddress = "server" # destination address
**.user[76..99].app[0].connectPort = 10021 # destination port, default is 1000
**.user[76..99].app[0].replyLength = 1B * int(exponential(150000))
**.user[76..99].app[0].idleInterval = exponential(30s)
**.user[76..99].app[0].thinkTime = 0

**.user[75].numApps = 1
**.user[75].app[0].typename = "VoIPApp" # VoIP custom application type
**.user[75].app[0].destAddresses = "user[0] user[25] user[50] user[75]" #user[100] user[125] user[150] user[175] user[200] user[225] user[250] user[275] user[300] user[325] user[350] user[375] user[400] user[425] user[450] user[475] user[500] user[525] user[550] user[575] user[600]"
**.user[75].app[0].destPort = 100 # destination port
**.user[75].app[0].localPort = 100 # listen port
**.user[75].app[0].messageLength = 32B+ 12B #32B of payload + IP|UDP|RTP protocol headers
**.user[75].app[0].acceptableDelay = 200ms # max acceptable 'end-to-end' delay in VoIP application
**.user[75].app[0].sendInterval = 0.02s # 50pps rate; sends a packet every 0.02s

**.numUsersPerAccRouter = 25
**.numBBrouterPerGateway = 2
**.numAroutersPerBBRouter = 2

[Config DSL_for_VoIP_and_Internet_Worse_Case]

**.dataRate =2 Mbps

**.user[1..24].numApps = 1 # number of applications on the user
**.user[1..24].app[0].typename = "TcpBasicClientApp" # Internet acces application type
**.user[1..24].app[0].connectAddress = "server" # destination address
**.user[1..24].app[0].connectPort = 10021 # destination port, default is 1000
**.user[1..24].app[0].replyLength = 1B * int(exponential(150000))
**.user[1..24].app[0].idleInterval = exponential(30s)
**.user[1..24].app[0].thinkTime = 0

**.user[0].numApps = 1
**.user[0].app[0].typename = "VoIPApp" # VoIP custom application type
**.user[0].app[0].destAddresses = "user[0] user[25] user[50] user[75]" #user[100] user[125] user[150] user[175] user[200] user[225] user[250] user[275] user[300] user[325] user[350] user[375] user[400] user[425] user[450] user[475] user[500] user[525] user[550] user[575] user[600]"
**.user[0].app[0].destPort = 100 # destination port
**.user[0].app[0].localPort = 100 # listen port
**.user[0].app[0].messageLength = 32B+ 12B #32B of payload + IP|UDP|RTP protocol headers
**.user[0].app[0].acceptableDelay = 200ms # max acceptable 'end-to-end' delay in VoIP application
**.user[0].app[0].sendInterval = 0.02s # 50pps rate; sends a packet every 0.02s

**.user[26..49].numApps = 1 # number of applications on the user
**.user[26..49].app[0].typename = "TcpBasicClientApp" # Internet acces application type
**.user[26..49].app[0].connectAddress = "server" # destination address
**.user[26..49].app[0].connectPort = 10021 # destination port, default is 1000
**.user[26..49].app[0].replyLength = 1B * int(exponential(150000))
**.user[26..49].app[0].idleInterval = exponential(30s)
**.user[26..49].app[0].thinkTime = 0

**.user[25].numApps = 1
**.user[25].app[0].typename = "VoIPApp" # VoIP custom application type
**.user[25].app[0].destAddresses = "user[0] user[25] user[50] user[75]" #user[100] user[125] user[150] user[175] user[200] user[225] user[250] user[275] user[300] user[325] user[350] user[375] user[400] user[425] user[450] user[475] user[500] user[525] user[550] user[575] user[600]"
**.user[25].app[0].destPort = 100 # destination port
**.user[25].app[0].localPort = 100 # listen port
**.user[25].app[0].messageLength = 32B+ 12B #32B of payload + IP|UDP|RTP protocol headers
**.user[25].app[0].acceptableDelay = 200ms # max acceptable 'end-to-end' delay in VoIP application
**.user[25].app[0].sendInterval = 0.02s # 50pps rate; sends a packet every 0.02s

**.user[51..74].numApps = 1 # number of applications on the user
**.user[51..74].app[0].typename = "TcpBasicClientApp" # Internet acces application type
**.user[51..74].app[0].connectAddress = "server" # destination address
**.user[51..74].app[0].connectPort = 10021 # destination port, default is 1000
**.user[51..74].app[0].replyLength = 1B * int(exponential(150000))
**.user[51..74].app[0].idleInterval = exponential(30s)
**.user[51..74].app[0].thinkTime = 0

**.user[50].numApps = 1
**.user[50].app[0].typename = "VoIPApp" # VoIP custom application type
**.user[50].app[0].destAddresses = "user[0] user[25] user[50] user[75]" #user[100] user[125] user[150] user[175] user[200] user[225] user[250] user[275] user[300] user[325] user[350] user[375] user[400] user[425] user[450] user[475] user[500] user[525] user[550] user[575] user[600]"
**.user[50].app[0].destPort = 100 # destination port
**.user[50].app[0].localPort = 100 # listen port
**.user[50].app[0].messageLength = 32B+ 12B #32B of payload + IP|UDP|RTP protocol headers
**.user[50].app[0].acceptableDelay = 200ms # max acceptable 'end-to-end' delay in VoIP application
**.user[50].app[0].sendInterval = 0.02s # 50pps rate; sends a packet every 0.02s

**.user[76..99].numApps = 1 # number of applications on the user
**.user[76..99].app[0].typename = "TcpBasicClientApp" # Internet acces application type
**.user[76..99].app[0].connectAddress = "server" # destination address
**.user[76..99].app[0].connectPort = 10021 # destination port, default is 1000
**.user[76..99].app[0].replyLength = 1B * int(exponential(150000))
**.user[76..99].app[0].idleInterval = exponential(30s)
**.user[76..99].app[0].thinkTime = 0

**.user[75].numApps = 1
**.user[75].app[0].typename = "VoIPApp" # VoIP custom application type
**.user[75].app[0].destAddresses = "user[0] user[25] user[50] user[75]" #user[100] user[125] user[150] user[175] user[200] user[225] user[250] user[275] user[300] user[325] user[350] user[375] user[400] user[425] user[450] user[475] user[500] user[525] user[550] user[575] user[600]"
**.user[75].app[0].destPort = 100 # destination port
**.user[75].app[0].localPort = 100 # listen port
**.user[75].app[0].messageLength = 32B+ 12B #32B of payload + IP|UDP|RTP protocol headers
**.user[75].app[0].acceptableDelay = 200ms # max acceptable 'end-to-end' delay in VoIP application
**.user[75].app[0].sendInterval = 0.02s # 50pps rate; sends a packet every 0.02s

**.numUsersPerAccRouter = 25
**.numBBrouterPerGateway = 2
**.numAroutersPerBBRouter = 2

# This configuration extends the parameters of the base configuration, TCP, for DSL.
#[Config DSL_for_Internet]
#**.dataRate = 2 Mbps
#extends = TCP
#repeat = 1

# This configuration takes all the parameters of configuration VoIP, TCP and base configuration and extends them to add more.
#numUsersPerAccRouter
#numBBrouterPerGateway
#numAroutersPerBBRouter



# User Settings for Internet access + VoIP services
#**.user[0..1].numApps = 1 # number of applications for user[0..1]
#**.user[2..24].numApps = 1 # number of applications for user[2..24]


# User TCP Settings
##**.user[2..24].app[0].typename = "TcpBasicClientApp" # Internet acces application type

#**.user[2..24].app[0].connectAddress = "server" # destination address
#**.user[2..24].app[0].connectPort = 10021 # destination port, default is 1000
#**.user[2..24].app[0].replyLength = 1B * int(exponential(150000)) # size of downloaded file
#**.user[2..24].app[0].idleInterval = exponential(30s) # pause time between sessions
#**.user[2..24].app[0].thinkTime = 0 # set to zero because only one request per session


#**.user[0..24].app[0].typename = "VoIPApp"
#**.user[0..24].app[0].destAddresses = "user[0] user[1] user[2] user[3] user[4] user[5] user[6] user[7] user[8] user[9] user[10] user[11] user[12] user[13] user[14] user[15] user[16] user[17] user[18] user[19] user[20] user[21] user[22] user[23] user[24]"
#**.user[0..24].app[0].destPort = 100
#**.user[0..24].app[0].messageLength = 32B

#**.user[0].app[0].destAddresses = "user[0] user[1] user[2] user[3] user[4] user[5] user[6] user[7] user[8] user[9] user[10] user[11] user[12] user[13] user[14] user[15] user[16] user[17] user[18] user[19] user[20] user[21] user[22] user[23] user[24]"
