[General]
network = Exercise7
description = "Communication Network Evaluation"

sim-time-limit = ${timelimit= 100}s

# Measurement Settings
**.channel.throughput.result-recording-modes = +last
**.channel.queueLength.result-recording-modes = +last
**.vector-recording = false
cmdenv-interactive = true
repeat = 1

# TCP Settings
**.tcp.typename = "Tcp"
**.tcpAlgorithmClass = "TcpNewReno"
**.tcp.mss = 1000 # MTU - IP header - TCP header = 1040B - 20B - 20B = 1000B
**.tcp.advertisedWindow = 100 * this.mss  #upper bounded at max CWND for 100 packets
**.tcp.windowScalingSupport = true # enabled since advertisedWindow > DEFINE_MAX

# General Server Settings
**.server.numApps = 1 # number of applications on the server
**.server.app[0].typename="TcpGenericServerApp" # Server application type
**.server.app[0].localPort = 10021 # TCP server listen port, default is 1000

# Router Settings
**.ppp[*].ppp.queue.typename = "DropTailQueue"
**.gatewayRouter.ppp[*].ppp.queue.packetCapacity = 40 # Output port buffer at gateway router
**.accessRouter[*].ppp[*].ppp.queue.packetCapacity = 40 # Output port buffer at access router
**.backboneRouter[*].ppp[*].ppp.queue.packetCapacity = 40 # Output port buffer at backbone router

# TCP Configurations
**.user[*].numApps = 1 # number of applications on the user
**.user[*].app[0].typename = "TcpBasicClientApp" # Internet acces application type

**.user[*].app[0].connectAddress = "server" # destination address
**.user[*].app[0].connectPort = 10021 # destination port, default is 1000
**.user[*].app[0].replyLength = 1B * int(exponential(150000))
**.user[*].app[0].idleInterval = exponential(30s)
**.user[*].app[0].thinkTime = 0


# This configuration extends the parameters of the base configuration, TCP, for ISDN. 
[Config ISDN_Internet_Surfing_Only]
description = "625 users, 25 Access routers and 5 Backbone routers"
**.dataRate = 64 kbps

repeat = 10

[Config DSL_Internet_Surfing_Only]
description = "625 users, 25 Access routers and 5 Backbone routers"
**.dataRate = 2 Mbps

repeat = 10


[Config ISDN_One_Pair_VoIP_within_Same_Access_Router]
**.dataRate = 64 kbps

**.user[*].numApps = 2 # number of applications on the user (Surfing + VoIP)

**.user[*].app[1].typename = "VoIPApp" # VoIP custom application type
**.user[*].app[1].destPort = 100 # destination port
**.user[*].app[1].localPort = 100 # listen port
**.user[*].app[1].messageLength = 32B+ 12B #32B of payload + RTP protocol headers, IP+UDP headers included via simulation
**.user[*].app[1].sendInterval = 0.02s # 50pps rate; sends a packet every 0.02s

# Defines one VoIP communication pair
**.user[0].app[1].destAddresses = "user[1]" # User 0 communication with user 1
**.user[1].app[1].destAddresses = "user[0]" # User 1 communication with user 0


[Config ISDN_for_All_Internet_and_Multi_Pair_VoIP_within_Same_Access_Router]
**.dataRate = 64 kbps

**.user[*].numApps = 2 # number of applications on the user (Surfing + VoIP)

**.user[*].app[1].typename = "VoIPApp" # VoIP custom application type
#**.user[0].app[1].destAddresses = "user[1] user[2] user[3] user[4] user[5] user[6] user[7] user[8] user[9] user[10] user[11] user[12] user[13] user[14] user[15] user[16] user[17] user[18] user[19] user[20] user[21] user[22] user[23] user[24]"
**.user[*].app[1].destPort = 100 # destination port
**.user[*].app[1].localPort = 100 # listen port
**.user[*].app[1].messageLength = 32B+ 12B #32B of payload + RTP protocol headers, IP+UDP headers included via simulation
**.user[*].app[1].acceptableDelay = 200ms # max acceptable 'end-to-end' delay in VoIP application
**.user[*].app[1].sendInterval = 0.02s # 50pps rate; sends a packet every 0.02s

# Defines multiple VoIP communication pairs
**.user[0].app[1].destAddresses = "user[1]" # User 0 communication with user 1
**.user[1].app[1].destAddresses = "user[0]" # User 1 communication with user 0
**.user[2].app[1].destAddresses = "user[3]" # User 3 communication with user 2
**.user[3].app[1].destAddresses = "user[2]" # User 2 communication with user 3


[Config Best_Case_DSL_for_All_Internet_and_All_Pair_VoIP]
**.dataRate = 2 Mbps

**.user[*].numApps = 2 # number of applications on the user

**.user[*].app[1].typename = "VoIPApp" # VoIP custom application type
#**.user[0].app[1].destAddresses = "user[1] user[2] user[3] user[4] user[5] user[6] user[7] user[8] user[9] user[10] user[11] user[12] user[13] user[14] user[15] user[16] user[17] user[18] user[19] user[20] user[21] user[22] user[23] user[24]"
**.user[*].app[1].destPort = 100 # destination port
**.user[*].app[1].localPort = 100 # listen port
**.user[*].app[1].messageLength = 32B+ 12B #32B of payload + RTP protocol headers, IP+UDP headers included via simulation
**.user[*].app[1].acceptableDelay = 200ms # max acceptable 'end-to-end' delay in VoIP application
**.user[*].app[1].sendInterval = 0.02s # 50pps rate; sends a packet every 0.02s


# Defines the VoIP communication pairs
#**.user[*].app[1].destAddresses = "user[" + string(parentIndex()+1) + "]"
**.user[24].app[1].destAddresses = "user[23]"
**.user[23].app[1].destAddresses = "user[22]"
**.user[22].app[1].destAddresses = "user[21]"
**.user[21].app[1].destAddresses = "user[20]"
**.user[20].app[1].destAddresses = "user[19]"
**.user[19].app[1].destAddresses = "user[18]"
**.user[18].app[1].destAddresses = "user[17]"
**.user[17].app[1].destAddresses = "user[16]"
**.user[16].app[1].destAddresses = "user[15]"
**.user[15].app[1].destAddresses = "user[14]"
**.user[14].app[1].destAddresses = "user[13]"
**.user[13].app[1].destAddresses = "user[12]"
**.user[12].app[1].destAddresses = "user[11]"
**.user[11].app[1].destAddresses = "user[10]"
**.user[10].app[1].destAddresses = "user[9]"
**.user[9].app[1].destAddresses = "user[8]"
**.user[8].app[1].destAddresses = "user[7]"
**.user[7].app[1].destAddresses = "user[6]"
**.user[6].app[1].destAddresses = "user[5]"
**.user[5].app[1].destAddresses = "user[4]"
**.user[4].app[1].destAddresses = "user[3]"
**.user[3].app[1].destAddresses = "user[2]"
**.user[2].app[1].destAddresses = "user[1]"
**.user[1].app[1].destAddresses = "user[0]"


#**.user[0].app[1].destAddresses = "user[1]" # User 0 communication with user 1
#**.user[1].app[1].destAddresses = "user[0]" # User 1 communication with user 0

**.numUsersPerAccRouter = 25
**.numBBrouterPerGateway = 1
**.numAroutersPerBBRouter = 1

[Config ISDN_for_All_Internet_and_Five_Pair_VoIP]
**.dataRate = 64 kbps

**.user[*].numApps = 2 # number of applications on the user

**.user[*].app[1].typename = "VoIPApp" # VoIP custom application type
**.user[*].app[1].destPort = 100 # destination port
**.user[*].app[1].localPort = 100 # listen port
**.user[*].app[1].messageLength = 32B+ 12B #32B of payload + RTP protocol headers, IP+UDP headers included via simulation
**.user[*].app[1].acceptableDelay = 200ms # max acceptable 'end-to-end' delay in VoIP application
**.user[*].app[1].sendInterval = 0.02s # 50pps rate; sends a packet every 0.02s


# Defines the VoIP communication pairs
**.user[0].app[1].destAddresses = "user[20]"
**.user[1].app[1].destAddresses = "user[21]"
**.user[2].app[1].destAddresses = "user[22]"
**.user[3].app[1].destAddresses = "user[23]"
**.user[4].app[1].destAddresses = "user[24]"

**.user[24].app[1].destAddresses = "user[4]"
**.user[23].app[1].destAddresses = "user[3]"
**.user[22].app[1].destAddresses = "user[2]"
**.user[21].app[1].destAddresses = "user[1]"
**.user[20].app[1].destAddresses = "user[0]"

**.numUsersPerAccRouter = 25
**.numBBrouterPerGateway = 1
**.numAroutersPerBBRouter = 1


[Config DSL_for_All_Internet_and_Five_Pair_VoIP]
**.dataRate = 2 Mbps

**.user[*].numApps = 2 # number of applications on the user

**.user[*].app[1].typename = "VoIPApp" # VoIP custom application type
**.user[*].app[1].destPort = 100 # destination port
**.user[*].app[1].localPort = 100 # listen port
**.user[*].app[1].messageLength = 32B+ 12B #32B of payload + RTP protocol headers, IP+UDP headers included via simulation
**.user[*].app[1].acceptableDelay = 200ms # max acceptable 'end-to-end' delay in VoIP application
**.user[*].app[1].sendInterval = 0.02s # 50pps rate; sends a packet every 0.02s


# Defines the VoIP communication pairs
**.user[0].app[1].destAddresses = "user[20]"
**.user[1].app[1].destAddresses = "user[21]"
**.user[2].app[1].destAddresses = "user[22]"
**.user[3].app[1].destAddresses = "user[23]"
**.user[4].app[1].destAddresses = "user[24]"

**.user[24].app[1].destAddresses = "user[4]"
**.user[23].app[1].destAddresses = "user[3]"
**.user[22].app[1].destAddresses = "user[2]"
**.user[21].app[1].destAddresses = "user[1]"
**.user[20].app[1].destAddresses = "user[0]"

**.numUsersPerAccRouter = 25
**.numBBrouterPerGateway = 1
**.numAroutersPerBBRouter = 1

[Config DSL_Internet_and_Twelve_Pair_VoIP]
**.dataRate = 2 Mbps

**.user[*].numApps = 2 # number of applications on the user

**.user[*].app[1].typename = "VoIPApp" # VoIP custom application type
#**.user[0].app[1].destAddresses = "user[1] user[2] user[3] user[4] user[5] user[6] user[7] user[8] user[9] user[10] user[11] user[12] user[13] user[14] user[15] user[16] user[17] user[18] user[19] user[20] user[21] user[22] user[23] user[24]"
**.user[*].app[1].destPort = 100 # destination port
**.user[*].app[1].localPort = 100 # listen port
**.user[*].app[1].messageLength = 32B+ 12B #32B of payload + RTP protocol headers, IP+UDP headers included via simulation
**.user[*].app[1].acceptableDelay = 200ms # max acceptable 'end-to-end' delay in VoIP application
**.user[*].app[1].sendInterval = 0.02s # 50pps rate; sends a packet every 0.02s


# Defines the VoIP communication pairs
#**.user[*].app[1].destAddresses = "user[" + string(index()+1) + "]"
**.user[0].app[1].destAddresses = "user[24]"
**.user[1].app[1].destAddresses = "user[23]"
**.user[2].app[1].destAddresses = "user[22]"
**.user[3].app[1].destAddresses = "user[21]"
**.user[4].app[1].destAddresses = "user[20]"
**.user[5].app[1].destAddresses = "user[19]"
**.user[6].app[1].destAddresses = "user[18]"
**.user[7].app[1].destAddresses = "user[17]"
**.user[8].app[1].destAddresses = "user[16]"
**.user[9].app[1].destAddresses = "user[15]"
**.user[10].app[1].destAddresses = "user[14]"
**.user[11].app[1].destAddresses = "user[13]"

**.user[13].app[1].destAddresses = "user[11]"
**.user[14].app[1].destAddresses = "user[10]"
**.user[15].app[1].destAddresses = "user[9]"
**.user[16].app[1].destAddresses = "user[8]"
**.user[17].app[1].destAddresses = "user[7]"
**.user[18].app[1].destAddresses = "user[6]"
**.user[19].app[1].destAddresses = "user[5]"
**.user[20].app[1].destAddresses = "user[4]"
**.user[21].app[1].destAddresses = "user[3]"
**.user[22].app[1].destAddresses = "user[2]"
**.user[23].app[1].destAddresses = "user[1]"
**.user[24].app[1].destAddresses = "user[0]"

**.numUsersPerAccRouter = 25
**.numBBrouterPerGateway = 3
**.numAroutersPerBBRouter = 2



[Config ISDN_Internet_and_Twelve_Pair_VoIP]
**.dataRate = 64 kbps

**.user[*].numApps = 2 # number of applications on the user

**.user[*].app[1].typename = "VoIPApp" # VoIP custom application type
#**.user[0].app[1].destAddresses = "user[1] user[2] user[3] user[4] user[5] user[6] user[7] user[8] user[9] user[10] user[11] user[12] user[13] user[14] user[15] user[16] user[17] user[18] user[19] user[20] user[21] user[22] user[23] user[24]"
**.user[*].app[1].destPort = 100 # destination port
**.user[*].app[1].localPort = 100 # listen port
**.user[*].app[1].messageLength = 32B+ 12B #32B of payload + RTP protocol headers, IP+UDP headers included via simulation
**.user[*].app[1].acceptableDelay = 200ms # max acceptable 'end-to-end' delay in VoIP application
**.user[*].app[1].sendInterval = 0.02s # 50pps rate; sends a packet every 0.02s


# Defines the VoIP communication pairs
#**.user[*].app[1].destAddresses = "user[" + string(index()+1) + "]"
**.user[0].app[1].destAddresses = "user[24]"
**.user[1].app[1].destAddresses = "user[23]"
**.user[2].app[1].destAddresses = "user[22]"
**.user[3].app[1].destAddresses = "user[21]"
**.user[4].app[1].destAddresses = "user[20]"
**.user[5].app[1].destAddresses = "user[19]"
**.user[6].app[1].destAddresses = "user[18]"
**.user[7].app[1].destAddresses = "user[17]"
**.user[8].app[1].destAddresses = "user[16]"
**.user[9].app[1].destAddresses = "user[15]"
**.user[10].app[1].destAddresses = "user[14]"
**.user[11].app[1].destAddresses = "user[13]"

**.user[13].app[1].destAddresses = "user[11]"
**.user[14].app[1].destAddresses = "user[10]"
**.user[15].app[1].destAddresses = "user[9]"
**.user[16].app[1].destAddresses = "user[8]"
**.user[17].app[1].destAddresses = "user[7]"
**.user[18].app[1].destAddresses = "user[6]"
**.user[19].app[1].destAddresses = "user[5]"
**.user[20].app[1].destAddresses = "user[4]"
**.user[21].app[1].destAddresses = "user[3]"
**.user[22].app[1].destAddresses = "user[2]"
**.user[23].app[1].destAddresses = "user[1]"
**.user[24].app[1].destAddresses = "user[0]"

**.numUsersPerAccRouter = 25
**.numBBrouterPerGateway = 3
**.numAroutersPerBBRouter = 2


[Config xxxBest_Case_ISDN_for_All_Internet_and_Twenty_Pair_VoIP]
**.dataRate = 64 kbps

**.user[*].numApps = 2 # number of applications on the user

**.user[*].app[1].typename = "VoIPApp" # VoIP custom application type
**.user[*].app[1].destPort = 100 # destination port
**.user[*].app[1].localPort = 100 # listen port
**.user[*].app[1].messageLength = 32B+ 12B #32B of payload + RTP protocol headers, IP+UDP headers included via simulation
#**.user[*].app[1].acceptableDelay = 200ms # max acceptable 'end-to-end' delay in VoIP application
**.user[*].app[1].sendInterval = 0.02s # 50pps rate; sends a packet every 0.02s


# Defines the VoIP communication pairs
#**.user[*].app[1].destAddresses = "user[" + string(parentIndex()+20) + "]"
#**.user[0].app[1].destAddresses = "user[600]"
#**.user[600].app[1].destAddresses = "user[0]"
**.user[1].app[1].destAddresses = "user[575]"
**.user[2].app[1].destAddresses = "user[550]"
**.user[3].app[1].destAddresses = "user[525]"
**.user[4].app[1].destAddresses = "user[500]"
**.user[5].app[1].destAddresses = "user[475]"
**.user[6].app[1].destAddresses = "user[450]"
**.user[7].app[1].destAddresses = "user[425]"
**.user[8].app[1].destAddresses = "user[400]"
**.user[9].app[1].destAddresses = "user[375]"
**.user[10].app[1].destAddresses = "user[350]"
**.user[11].app[1].destAddresses = "user[325]"
**.user[12].app[1].destAddresses = "user[300]"
**.user[13].app[1].destAddresses = "user[275]"
**.user[14].app[1].destAddresses = "user[250]"
**.user[15].app[1].destAddresses = "user[225]"
**.user[16].app[1].destAddresses = "user[200]"
**.user[17].app[1].destAddresses = "user[175]"
**.user[18].app[1].destAddresses = "user[150]"
**.user[19].app[1].destAddresses = "user[125]"
**.user[20].app[1].destAddresses = "user[100]"
**.user[21].app[1].destAddresses = "user[75]"
**.user[22].app[1].destAddresses = "user[50]"
**.user[23].app[1].destAddresses = "user[25]"
**.user[24].app[1].destAddresses = "user[0]"

**.user[575].app[1].destAddresses = "user[1]"
**.user[550].app[1].destAddresses = "user[2]"
**.user[525].app[1].destAddresses = "user[3]"
**.user[500].app[1].destAddresses = "user[4]"
**.user[475].app[1].destAddresses = "user[5]"
**.user[450].app[1].destAddresses = "user[6]"
**.user[425].app[1].destAddresses = "user[7]"
**.user[400].app[1].destAddresses = "user[8]"
**.user[375].app[1].destAddresses = "user[9]"
**.user[350].app[1].destAddresses = "user[10]"
**.user[325].app[1].destAddresses = "user[11]"
**.user[300].app[1].destAddresses = "user[12]"
**.user[275].app[1].destAddresses = "user[13]"
**.user[250].app[1].destAddresses = "user[14]"
**.user[225].app[1].destAddresses = "user[15]"
**.user[200].app[1].destAddresses = "user[16]"
**.user[175].app[1].destAddresses = "user[17]"
**.user[150].app[1].destAddresses = "user[18]"
**.user[125].app[1].destAddresses = "user[19]" # different backbone router
**.user[100].app[1].destAddresses = "user[20]" # same backbone router
**.user[75].app[1].destAddresses = "user[21]" # same backbone router
**.user[50].app[1].destAddresses = "user[22]" # same backbone router
**.user[25].app[1].destAddresses = "user[23]" # same backbone router
**.user[0].app[1].destAddresses = "user[24]" # same access router



#**.user[0].app[1].destAddresses = "user[1]" # User 0 communication with user 1
#**.user[1].app[1].destAddresses = "user[0]" # User 1 communication with user 0

**.numUsersPerAccRouter = 25
**.numBBrouterPerGateway = 5
**.numAroutersPerBBRouter = 5

[Config ISDN_for_All_Internet_and_All_Pairs_VoIP_from_same_access_router]
**.dataRate = 64 kbps

**.user[*].numApps = 2 # number of applications on the user

**.user[*].app[1].typename = "VoIPApp" # VoIP custom application type
**.user[*].app[1].destPort = 100 # destination port
**.user[*].app[1].localPort = 100 # listen port
**.user[*].app[1].messageLength = 32B+ 12B #32B of payload + RTP protocol headers, IP+UDP headers included via simulation
#**.user[*].app[1].acceptableDelay = 200ms # max acceptable 'end-to-end' delay in VoIP application
**.user[*].app[1].sendInterval = 0.02s # 50pps rate; sends a packet every 0.02s


# Defines the VoIP communication pairs
#**.user[*].app[1].destAddresses = "user[" + string(parentIndex()+20) + "]"
**.user[0].app[1].destAddresses = "user[24]"
**.user[24].app[1].destAddresses = "user[0]"
#**.user[1].app[1].destAddresses = "user[23]"
#**.user[23].app[1].destAddresses = "user[1]"
#**.user[2].app[1].destAddresses = "user[22]"
#**.user[22].app[1].destAddresses = "user[2]"
##**.user[3].app[1].destAddresses = "user[21]"
#**.user[21].app[1].destAddresses = "user[3]"
#**.user[4].app[1].destAddresses = "user[20]"
#**.user[20].app[1].destAddresses = "user[4]"
#**.user[5].app[1].destAddresses = "user[19]"
#**.user[19].app[1].destAddresses = "user[5]"
#**.user[6].app[1].destAddresses = "user[18]"
#**.user[18].app[1].destAddresses = "user[6]"
#**.user[7].app[1].destAddresses = "user[17]"
#**.user[17].app[1].destAddresses = "user[7]"
**.user[8].app[1].destAddresses = "user[16]"
**.user[16].app[1].destAddresses = "user[8]"
**.user[9].app[1].destAddresses = "user[15]"
**.user[15].app[1].destAddresses = "user[9]"
#**.user[10].app[1].destAddresses = "user[14]"
#**.user[14].app[1].destAddresses = "user[10]"
#**.user[11].app[1].destAddresses = "user[13]"
#**.user[13].app[1].destAddresses = "user[11]"
#**.user[12].app[1].destAddresses = "user[12]"














#**.user[600].app[1].destAddresses = "user[]"
#**.user[575].app[1].destAddresses = "user[1]"
#**.user[550].app[1].destAddresses = "user[2]"
#**.user[525].app[1].destAddresses = "user[3]"
#**.user[500].app[1].destAddresses = "user[4]"
#**.user[475].app[1].destAddresses = "user[5]"
#**.user[450].app[1].destAddresses = "user[6]"
#**.user[425].app[1].destAddresses = "user[7]"
#**.user[400].app[1].destAddresses = "user[8]"
#**.user[375].app[1].destAddresses = "user[9]"
#**.user[350].app[1].destAddresses = "user[10]"
##**.user[325].app[1].destAddresses = "user[11]"
#**.user[300].app[1].destAddresses = "user[12]"
#**.user[275].app[1].destAddresses = "user[13]"
#**.user[250].app[1].destAddresses = "user[14]"
#**.user[225].app[1].destAddresses = "user[15]"
#**.user[200].app[1].destAddresses = "user[16]"
#**.user[175].app[1].destAddresses = "user[17]"
#**.user[150].app[1].destAddresses = "user[18]"
#**.user[125].app[1].destAddresses = "user[19]"


#**.user[0].app[1].destAddresses = "user[1]" # User 0 communication with user 1
#**.user[1].app[1].destAddresses = "user[0]" # User 1 communication with user 0

**.numUsersPerAccRouter = 25
**.numBBrouterPerGateway = 2
**.numAroutersPerBBRouter = 2

[Config ISDN_for_VoIP_and_Internet_Worse_Case]

**.dataRate =64 kbps

**.user[1..24].numApps = 1 # number of applications on the user
**.user[1..24].app[0].typename = "TcpBasicClientApp" # Internet acces application type
**.user[1..24].app[0].connectAddress = "server" # destination address
**.user[1..24].app[0].connectPort = 10021 # destination port, default is 1000
**.user[1..24].app[0].replyLength = 1B * int(exponential(150000))
**.user[1..24].app[0].idleInterval = exponential(30s)
**.user[1..24].app[0].thinkTime = 0

**.user[0].numApps = 1
**.user[0].app[0].typename = "VoIPApp" # VoIP custom application type
**.user[0].app[0].destAddresses = "user[0] user[25] user[50] user[75]" #user[100] user[125] user[150] user[175] user[200] user[225] user[250] user[275] user[300] user[325] user[350] user[375] user[400] user[425] user[450] user[475] user[500] user[525] user[550] user[575] user[600]"
**.user[0].app[0].destPort = 100 # destination port
**.user[0].app[0].localPort = 100 # listen port
**.user[0].app[0].messageLength = 32B+ 12B #32B of payload + IP|UDP|RTP protocol headers
**.user[0].app[0].acceptableDelay = 200ms # max acceptable 'end-to-end' delay in VoIP application
**.user[0].app[0].sendInterval = 0.02s # 50pps rate; sends a packet every 0.02s

**.user[26..49].numApps = 1 # number of applications on the user
**.user[26..49].app[0].typename = "TcpBasicClientApp" # Internet acces application type
**.user[26..49].app[0].connectAddress = "server" # destination address
**.user[26..49].app[0].connectPort = 10021 # destination port, default is 1000
**.user[26..49].app[0].replyLength = 1B * int(exponential(150000))
**.user[26..49].app[0].idleInterval = exponential(30s)
**.user[26..49].app[0].thinkTime = 0

**.user[25].numApps = 1
**.user[25].app[0].typename = "VoIPApp" # VoIP custom application type
**.user[25].app[0].destAddresses = "user[0] user[25] user[50] user[75]" #user[100] user[125] user[150] user[175] user[200] user[225] user[250] user[275] user[300] user[325] user[350] user[375] user[400] user[425] user[450] user[475] user[500] user[525] user[550] user[575] user[600]"
**.user[25].app[0].destPort = 100 # destination port
**.user[25].app[0].localPort = 100 # listen port
**.user[25].app[0].messageLength = 32B+ 12B #32B of payload + IP|UDP|RTP protocol headers
**.user[25].app[0].acceptableDelay = 200ms # max acceptable 'end-to-end' delay in VoIP application
**.user[25].app[0].sendInterval = 0.02s # 50pps rate; sends a packet every 0.02s

**.user[51..74].numApps = 1 # number of applications on the user
**.user[51..74].app[0].typename = "TcpBasicClientApp" # Internet acces application type
**.user[51..74].app[0].connectAddress = "server" # destination address
**.user[51..74].app[0].connectPort = 10021 # destination port, default is 1000
**.user[51..74].app[0].replyLength = 1B * int(exponential(150000))
**.user[51..74].app[0].idleInterval = exponential(30s)
**.user[51..74].app[0].thinkTime = 0

**.user[50].numApps = 1
**.user[50].app[0].typename = "VoIPApp" # VoIP custom application type
**.user[50].app[0].destAddresses = "user[0] user[25] user[50] user[75]" #user[100] user[125] user[150] user[175] user[200] user[225] user[250] user[275] user[300] user[325] user[350] user[375] user[400] user[425] user[450] user[475] user[500] user[525] user[550] user[575] user[600]"
**.user[50].app[0].destPort = 100 # destination port
**.user[50].app[0].localPort = 100 # listen port
**.user[50].app[0].messageLength = 32B+ 12B #32B of payload + IP|UDP|RTP protocol headers
**.user[50].app[0].acceptableDelay = 200ms # max acceptable 'end-to-end' delay in VoIP application
**.user[50].app[0].sendInterval = 0.02s # 50pps rate; sends a packet every 0.02s

**.user[76..99].numApps = 1 # number of applications on the user
**.user[76..99].app[0].typename = "TcpBasicClientApp" # Internet acces application type
**.user[76..99].app[0].connectAddress = "server" # destination address
**.user[76..99].app[0].connectPort = 10021 # destination port, default is 1000
**.user[76..99].app[0].replyLength = 1B * int(exponential(150000))
**.user[76..99].app[0].idleInterval = exponential(30s)
**.user[76..99].app[0].thinkTime = 0

**.user[75].numApps = 1
**.user[75].app[0].typename = "VoIPApp" # VoIP custom application type
**.user[75].app[0].destAddresses = "user[0] user[25] user[50] user[75]" #user[100] user[125] user[150] user[175] user[200] user[225] user[250] user[275] user[300] user[325] user[350] user[375] user[400] user[425] user[450] user[475] user[500] user[525] user[550] user[575] user[600]"
**.user[75].app[0].destPort = 100 # destination port
**.user[75].app[0].localPort = 100 # listen port
**.user[75].app[0].messageLength = 32B+ 12B #32B of payload + IP|UDP|RTP protocol headers
**.user[75].app[0].acceptableDelay = 200ms # max acceptable 'end-to-end' delay in VoIP application
**.user[75].app[0].sendInterval = 0.02s # 50pps rate; sends a packet every 0.02s

**.numUsersPerAccRouter = 25
**.numBBrouterPerGateway = 2
**.numAroutersPerBBRouter = 2

[Config DSL_for_VoIP_and_Internet_Worse_Case]

**.dataRate =2 Mbps

**.user[1..24].numApps = 1 # number of applications on the user
**.user[1..24].app[0].typename = "TcpBasicClientApp" # Internet acces application type
**.user[1..24].app[0].connectAddress = "server" # destination address
**.user[1..24].app[0].connectPort = 10021 # destination port, default is 1000
**.user[1..24].app[0].replyLength = 1B * int(exponential(150000))
**.user[1..24].app[0].idleInterval = exponential(30s)
**.user[1..24].app[0].thinkTime = 0

**.user[0].numApps = 1
**.user[0].app[0].typename = "VoIPApp" # VoIP custom application type
**.user[0].app[0].destAddresses = "user[0] user[25] user[50] user[75]" #user[100] user[125] user[150] user[175] user[200] user[225] user[250] user[275] user[300] user[325] user[350] user[375] user[400] user[425] user[450] user[475] user[500] user[525] user[550] user[575] user[600]"
**.user[0].app[0].destPort = 100 # destination port
**.user[0].app[0].localPort = 100 # listen port
**.user[0].app[0].messageLength = 32B+ 12B #32B of payload + IP|UDP|RTP protocol headers
**.user[0].app[0].acceptableDelay = 200ms # max acceptable 'end-to-end' delay in VoIP application
**.user[0].app[0].sendInterval = 0.02s # 50pps rate; sends a packet every 0.02s

**.user[26..49].numApps = 1 # number of applications on the user
**.user[26..49].app[0].typename = "TcpBasicClientApp" # Internet acces application type
**.user[26..49].app[0].connectAddress = "server" # destination address
**.user[26..49].app[0].connectPort = 10021 # destination port, default is 1000
**.user[26..49].app[0].replyLength = 1B * int(exponential(150000))
**.user[26..49].app[0].idleInterval = exponential(30s)
**.user[26..49].app[0].thinkTime = 0

**.user[25].numApps = 1
**.user[25].app[0].typename = "VoIPApp" # VoIP custom application type
**.user[25].app[0].destAddresses = "user[0] user[25] user[50] user[75]" #user[100] user[125] user[150] user[175] user[200] user[225] user[250] user[275] user[300] user[325] user[350] user[375] user[400] user[425] user[450] user[475] user[500] user[525] user[550] user[575] user[600]"
**.user[25].app[0].destPort = 100 # destination port
**.user[25].app[0].localPort = 100 # listen port
**.user[25].app[0].messageLength = 32B+ 12B #32B of payload + IP|UDP|RTP protocol headers
**.user[25].app[0].acceptableDelay = 200ms # max acceptable 'end-to-end' delay in VoIP application
**.user[25].app[0].sendInterval = 0.02s # 50pps rate; sends a packet every 0.02s

**.user[51..74].numApps = 1 # number of applications on the user
**.user[51..74].app[0].typename = "TcpBasicClientApp" # Internet acces application type
**.user[51..74].app[0].connectAddress = "server" # destination address
**.user[51..74].app[0].connectPort = 10021 # destination port, default is 1000
**.user[51..74].app[0].replyLength = 1B * int(exponential(150000))
**.user[51..74].app[0].idleInterval = exponential(30s)
**.user[51..74].app[0].thinkTime = 0

**.user[50].numApps = 1
**.user[50].app[0].typename = "VoIPApp" # VoIP custom application type
**.user[50].app[0].destAddresses = "user[0] user[25] user[50] user[75]" #user[100] user[125] user[150] user[175] user[200] user[225] user[250] user[275] user[300] user[325] user[350] user[375] user[400] user[425] user[450] user[475] user[500] user[525] user[550] user[575] user[600]"
**.user[50].app[0].destPort = 100 # destination port
**.user[50].app[0].localPort = 100 # listen port
**.user[50].app[0].messageLength = 32B+ 12B #32B of payload + IP|UDP|RTP protocol headers
**.user[50].app[0].acceptableDelay = 200ms # max acceptable 'end-to-end' delay in VoIP application
**.user[50].app[0].sendInterval = 0.02s # 50pps rate; sends a packet every 0.02s

**.user[76..99].numApps = 1 # number of applications on the user
**.user[76..99].app[0].typename = "TcpBasicClientApp" # Internet acces application type
**.user[76..99].app[0].connectAddress = "server" # destination address
**.user[76..99].app[0].connectPort = 10021 # destination port, default is 1000
**.user[76..99].app[0].replyLength = 1B * int(exponential(150000))
**.user[76..99].app[0].idleInterval = exponential(30s)
**.user[76..99].app[0].thinkTime = 0

**.user[75].numApps = 1
**.user[75].app[0].typename = "VoIPApp" # VoIP custom application type
**.user[75].app[0].destAddresses = "user[0] user[25] user[50] user[75]" #user[100] user[125] user[150] user[175] user[200] user[225] user[250] user[275] user[300] user[325] user[350] user[375] user[400] user[425] user[450] user[475] user[500] user[525] user[550] user[575] user[600]"
**.user[75].app[0].destPort = 100 # destination port
**.user[75].app[0].localPort = 100 # listen port
**.user[75].app[0].messageLength = 32B+ 12B #32B of payload + IP|UDP|RTP protocol headers
**.user[75].app[0].acceptableDelay = 200ms # max acceptable 'end-to-end' delay in VoIP application
**.user[75].app[0].sendInterval = 0.02s # 50pps rate; sends a packet every 0.02s

**.numUsersPerAccRouter = 25
**.numBBrouterPerGateway = 2
**.numAroutersPerBBRouter = 2

# This configuration extends the parameters of the base configuration, TCP, for DSL.
#[Config DSL_for_Internet]
#**.dataRate = 2 Mbps
#extends = TCP
#repeat = 1

# This configuration takes all the parameters of configuration VoIP, TCP and base configuration and extends them to add more.
#numUsersPerAccRouter
#numBBrouterPerGateway
#numAroutersPerBBRouter



# User Settings for Internet access + VoIP services