[General]
network = Exercise7
description = "Communication Network Evaluation"

# Measurement Settings
**.channel.throughput.result-recording-modes = +last
**.channel.queueLength.result-recording-modes = +last
**.vector-recording = false

cmdenv-interactive = true

# TCP Settings
**.tcp.typename = "Tcp"
**.tcpAlgorithmClass = "TcpNewReno"
**.tcp.mss = 1000 # MTU - IP header - TCP header = 1040B - 20B - 20B = 1000B
**.tcp.advertisedWindow = 100 * this.mss  #upper bounded at max CWND for 100 packets
**.tcp.windowScalingSupport = true # enabled since advertisedWindow > DEFINE_MAX

# General Server Settings
**.server.numApps = 1 # number of applications on the server
**.server.app[0].typename="TcpGenericServerApp" # Server application type
**.server.app[0].localPort = 10021 # TCP server listen port, default is 1000

# Router Settings
**.gatewayRouter.ppp[*].ppp.queue.typename = "DropTailQueue"
**.accessRouter[*].ppp[*].ppp.queue.typename = "DropTailQueue"
**.backboneRouter[*].ppp[*].ppp.queue.typename = "DropTailQueue"
**.gatewayRouter.ppp[*].ppp.queue.packetCapacity = 40 # Output port buffer at gateway router
**.accessRouter[*].ppp[*].ppp.queue.packetCapacity = 40 # Output port buffer at access router
**.backboneRouter[*].ppp[*].ppp.queue.packetCapacity = 40 # Output port buffer at backbone router

# TCP Configurations
**.user[*].numApps = 1 # number of applications on the user
**.user[*].app[0].typename = "TcpBasicClientApp" # Internet acces application type

**.user[*].app[0].connectAddress = "server" # destination address
**.user[*].app[0].connectPort = 10021 # destination port, default is 1000
**.user[*].app[0].replyLength = 1B * int(exponential(150000))
**.user[*].app[0].idleInterval = exponential(30s) 
**.user[*].app[0].thinkTime = 0s


#####################################################################################################
#####################################################################################################
###############################  DIFFERENT  CONFIGURATION  SCENARIOS  ###############################
#####################################################################################################
#####################################################################################################

# Scenario 1 -- ISDN Throughput evaluation for full network -- 625 users; simTime: 1k, 3k, 5k // repeat: 3, 10, 30)
[Config NO_VOIP_ISDN_rpt03_scenario_01]
**.dataRate = 64 kbps
sim-time-limit = ${time=1000, 3000, 5000}s
repeat = 3

[Config NO_VOIP_ISDN_rpt10_scenario_01]
**.dataRate = 64 kbps
sim-time-limit = ${time=1000, 3000, 5000}s
repeat = 10

[Config NO_VOIP_ISDN_rpt30_scenario_01]
**.dataRate = 64 kbps
sim-time-limit = ${time=1000, 3000, 5000}s
repeat = 30

# Scenario 2 -- DSL Throughput evaluation for full network -- 625 users; simTime: 1k, 3k, 5k // repeat: 3, 10, 30)
[Config NO_VOIP_DSL_rpt03_scenario_02]
**.dataRate = 2 Mbps
sim-time-limit = ${time=1000, 3000, 5000}s
repeat = 3

[Config NO_VOIP_DSL_rpt10_scenario_02]
**.dataRate = 2 Mbps
sim-time-limit = ${time=1000, 3000, 5000}s
repeat = 10

[Config NO_VOIP_DSL_rpt30_scenario_02]
**.dataRate = 2 Mbps
sim-time-limit = ${time=1000, 3000, 5000}s
repeat = 30

#####################################################################################################
##################################           DSL + VOIP            ##################################
#####################################################################################################


# Scenario 3 -- DSL+VOIP - Users on same access router , same backbone routers -- repeat: 3,10
[Config VOIP_DSL_rpt03_scenario_03_PAIRS_300]
**.dataRate = 2 Mbps
sim-time-limit = ${time=5000}s
repeat = 3

**.user[*].numApps = 2 # number of applications on the user

**.user[*].app[1].typename = "VoIPApp" # VoIP custom application type
**.user[*].app[1].destPort = 100 # destination port
**.user[*].app[1].localPort = 100 # listen port
**.user[*].app[1].messageLength = 32B + 12B # 32B of payload + RTP protocol headers, IP+UDP headers included via simulation
**.user[*].app[1].sendInterval = 0.02s # 50pps rate; sends a packet every 0.02s

################################  SAME ACC ROUTER | SAME BB ROUTER  #################################
##################################           300  PAIRS            ##################################
**.user[0].app[1].destAddresses = "user[24]"
**.user[24].app[1].destAddresses = "user[0]"
**.user[1].app[1].destAddresses = "user[23]"
**.user[23].app[1].destAddresses = "user[1]"
**.user[2].app[1].destAddresses = "user[22]"
**.user[22].app[1].destAddresses = "user[2]"
**.user[3].app[1].destAddresses = "user[21]"
**.user[21].app[1].destAddresses = "user[3]"
**.user[4].app[1].destAddresses = "user[20]"
**.user[20].app[1].destAddresses = "user[4]"
**.user[5].app[1].destAddresses = "user[19]"
**.user[19].app[1].destAddresses = "user[5]"
**.user[6].app[1].destAddresses = "user[18]"
**.user[18].app[1].destAddresses = "user[6]"
**.user[7].app[1].destAddresses = "user[17]"
**.user[17].app[1].destAddresses = "user[7]"
**.user[8].app[1].destAddresses = "user[16]"
**.user[16].app[1].destAddresses = "user[8]"
**.user[9].app[1].destAddresses = "user[15]"
**.user[15].app[1].destAddresses = "user[9]"
**.user[10].app[1].destAddresses = "user[14]"
**.user[14].app[1].destAddresses = "user[10]"
**.user[11].app[1].destAddresses = "user[13]"
**.user[13].app[1].destAddresses = "user[11]"

**.user[25].app[1].destAddresses = "user[49]"
**.user[49].app[1].destAddresses = "user[25]"
**.user[26].app[1].destAddresses = "user[48]"
**.user[48].app[1].destAddresses = "user[26]"
**.user[27].app[1].destAddresses = "user[47]"
**.user[47].app[1].destAddresses = "user[27]"
**.user[28].app[1].destAddresses = "user[46]"
**.user[46].app[1].destAddresses = "user[28]"
**.user[29].app[1].destAddresses = "user[45]"
**.user[45].app[1].destAddresses = "user[29]"
**.user[30].app[1].destAddresses = "user[44]"
**.user[44].app[1].destAddresses = "user[30]"
**.user[31].app[1].destAddresses = "user[43]"
**.user[43].app[1].destAddresses = "user[31]"
**.user[32].app[1].destAddresses = "user[42]"
**.user[42].app[1].destAddresses = "user[32]"
**.user[33].app[1].destAddresses = "user[41]"
**.user[41].app[1].destAddresses = "user[33]"
**.user[34].app[1].destAddresses = "user[40]"
**.user[40].app[1].destAddresses = "user[34]"
**.user[35].app[1].destAddresses = "user[39]"
**.user[39].app[1].destAddresses = "user[35]"
**.user[36].app[1].destAddresses = "user[38]"
**.user[38].app[1].destAddresses = "user[36]"

**.user[50].app[1].destAddresses = "user[74]"
**.user[74].app[1].destAddresses = "user[50]"
**.user[51].app[1].destAddresses = "user[73]"
**.user[73].app[1].destAddresses = "user[51]"
**.user[52].app[1].destAddresses = "user[72]"
**.user[72].app[1].destAddresses = "user[52]"
**.user[53].app[1].destAddresses = "user[71]"
**.user[71].app[1].destAddresses = "user[53]"
**.user[54].app[1].destAddresses = "user[70]"
**.user[70].app[1].destAddresses = "user[54]"
**.user[55].app[1].destAddresses = "user[69]"
**.user[69].app[1].destAddresses = "user[55]"
**.user[56].app[1].destAddresses = "user[68]"
**.user[68].app[1].destAddresses = "user[56]"
**.user[57].app[1].destAddresses = "user[67]"
**.user[67].app[1].destAddresses = "user[57]"
**.user[58].app[1].destAddresses = "user[66]"
**.user[66].app[1].destAddresses = "user[58]"
**.user[59].app[1].destAddresses = "user[65]"
**.user[65].app[1].destAddresses = "user[59]"
**.user[60].app[1].destAddresses = "user[64]"
**.user[64].app[1].destAddresses = "user[60]"
**.user[61].app[1].destAddresses = "user[63]"
**.user[63].app[1].destAddresses = "user[61]"

**.user[75].app[1].destAddresses = "user[99]"
**.user[99].app[1].destAddresses = "user[75]"
**.user[76].app[1].destAddresses = "user[98]"
**.user[98].app[1].destAddresses = "user[76]"
**.user[77].app[1].destAddresses = "user[97]"
**.user[97].app[1].destAddresses = "user[77]"
**.user[78].app[1].destAddresses = "user[96]"
**.user[96].app[1].destAddresses = "user[78]"
**.user[79].app[1].destAddresses = "user[95]"
**.user[95].app[1].destAddresses = "user[79]"
**.user[80].app[1].destAddresses = "user[94]"
**.user[94].app[1].destAddresses = "user[80]"
**.user[81].app[1].destAddresses = "user[93]"
**.user[93].app[1].destAddresses = "user[81]"
**.user[82].app[1].destAddresses = "user[92]"
**.user[92].app[1].destAddresses = "user[82]"
**.user[83].app[1].destAddresses = "user[91]"
**.user[91].app[1].destAddresses = "user[83]"
**.user[84].app[1].destAddresses = "user[90]"
**.user[90].app[1].destAddresses = "user[84]"
**.user[85].app[1].destAddresses = "user[89]"
**.user[89].app[1].destAddresses = "user[85]"
**.user[86].app[1].destAddresses = "user[88]"
**.user[88].app[1].destAddresses = "user[86]"

**.user[100].app[1].destAddresses = "user[124]"
**.user[124].app[1].destAddresses = "user[100]"
**.user[101].app[1].destAddresses = "user[123]"
**.user[123].app[1].destAddresses = "user[101]"
**.user[102].app[1].destAddresses = "user[122]"
**.user[122].app[1].destAddresses = "user[102]"
**.user[103].app[1].destAddresses = "user[121]"
**.user[121].app[1].destAddresses = "user[103]"
**.user[104].app[1].destAddresses = "user[120]"
**.user[120].app[1].destAddresses = "user[104]"
**.user[105].app[1].destAddresses = "user[119]"
**.user[119].app[1].destAddresses = "user[105]"
**.user[106].app[1].destAddresses = "user[118]"
**.user[118].app[1].destAddresses = "user[106]"
**.user[107].app[1].destAddresses = "user[117]"
**.user[117].app[1].destAddresses = "user[107]"
**.user[108].app[1].destAddresses = "user[116]"
**.user[116].app[1].destAddresses = "user[108]"
**.user[109].app[1].destAddresses = "user[115]"
**.user[115].app[1].destAddresses = "user[109]"
**.user[110].app[1].destAddresses = "user[114]"
**.user[114].app[1].destAddresses = "user[110]"
**.user[111].app[1].destAddresses = "user[113]"
**.user[113].app[1].destAddresses = "user[111]"

**.user[125].app[1].destAddresses = "user[149]"
**.user[149].app[1].destAddresses = "user[125]"
**.user[126].app[1].destAddresses = "user[148]"
**.user[148].app[1].destAddresses = "user[126]"
**.user[127].app[1].destAddresses = "user[147]"
**.user[147].app[1].destAddresses = "user[127]"
**.user[128].app[1].destAddresses = "user[146]"
**.user[146].app[1].destAddresses = "user[128]"
**.user[129].app[1].destAddresses = "user[145]"
**.user[145].app[1].destAddresses = "user[129]"
**.user[130].app[1].destAddresses = "user[144]"
**.user[144].app[1].destAddresses = "user[130]"
**.user[131].app[1].destAddresses = "user[143]"
**.user[143].app[1].destAddresses = "user[131]"
**.user[132].app[1].destAddresses = "user[142]"
**.user[142].app[1].destAddresses = "user[132]"
**.user[133].app[1].destAddresses = "user[141]"
**.user[141].app[1].destAddresses = "user[133]"
**.user[134].app[1].destAddresses = "user[140]"
**.user[140].app[1].destAddresses = "user[134]"
**.user[135].app[1].destAddresses = "user[139]"
**.user[139].app[1].destAddresses = "user[135]"
**.user[136].app[1].destAddresses = "user[138]"
**.user[138].app[1].destAddresses = "user[136]"

**.user[150].app[1].destAddresses = "user[174]"
**.user[174].app[1].destAddresses = "user[150]"
**.user[151].app[1].destAddresses = "user[173]"
**.user[173].app[1].destAddresses = "user[151]"
**.user[152].app[1].destAddresses = "user[172]"
**.user[172].app[1].destAddresses = "user[152]"
**.user[153].app[1].destAddresses = "user[171]"
**.user[171].app[1].destAddresses = "user[153]"
**.user[154].app[1].destAddresses = "user[170]"
**.user[170].app[1].destAddresses = "user[154]"
**.user[155].app[1].destAddresses = "user[169]"
**.user[169].app[1].destAddresses = "user[155]"
**.user[156].app[1].destAddresses = "user[168]"
**.user[168].app[1].destAddresses = "user[156]"
**.user[157].app[1].destAddresses = "user[167]"
**.user[167].app[1].destAddresses = "user[157]"
**.user[158].app[1].destAddresses = "user[166]"
**.user[166].app[1].destAddresses = "user[158]"
**.user[159].app[1].destAddresses = "user[165]"
**.user[165].app[1].destAddresses = "user[159]"
**.user[160].app[1].destAddresses = "user[164]"
**.user[164].app[1].destAddresses = "user[160]"
**.user[161].app[1].destAddresses = "user[163]"
**.user[163].app[1].destAddresses = "user[161]"

**.user[175].app[1].destAddresses = "user[199]"
**.user[199].app[1].destAddresses = "user[175]"
**.user[176].app[1].destAddresses = "user[198]"
**.user[198].app[1].destAddresses = "user[176]"
**.user[177].app[1].destAddresses = "user[197]"
**.user[197].app[1].destAddresses = "user[177]"
**.user[178].app[1].destAddresses = "user[196]"
**.user[196].app[1].destAddresses = "user[178]"
**.user[179].app[1].destAddresses = "user[195]"
**.user[195].app[1].destAddresses = "user[179]"
**.user[180].app[1].destAddresses = "user[194]"
**.user[194].app[1].destAddresses = "user[180]"
**.user[181].app[1].destAddresses = "user[193]"
**.user[193].app[1].destAddresses = "user[181]"
**.user[182].app[1].destAddresses = "user[192]"
**.user[192].app[1].destAddresses = "user[182]"
**.user[183].app[1].destAddresses = "user[191]"
**.user[191].app[1].destAddresses = "user[183]"
**.user[184].app[1].destAddresses = "user[190]"
**.user[190].app[1].destAddresses = "user[184]"
**.user[185].app[1].destAddresses = "user[189]"
**.user[189].app[1].destAddresses = "user[185]"
**.user[186].app[1].destAddresses = "user[188]"
**.user[188].app[1].destAddresses = "user[186]"

**.user[200].app[1].destAddresses = "user[224]"
**.user[224].app[1].destAddresses = "user[200]"
**.user[201].app[1].destAddresses = "user[223]"
**.user[223].app[1].destAddresses = "user[201]"
**.user[202].app[1].destAddresses = "user[222]"
**.user[222].app[1].destAddresses = "user[202]"
**.user[203].app[1].destAddresses = "user[221]"
**.user[221].app[1].destAddresses = "user[203]"
**.user[204].app[1].destAddresses = "user[220]"
**.user[220].app[1].destAddresses = "user[204]"
**.user[205].app[1].destAddresses = "user[219]"
**.user[219].app[1].destAddresses = "user[205]"
**.user[206].app[1].destAddresses = "user[218]"
**.user[218].app[1].destAddresses = "user[206]"
**.user[207].app[1].destAddresses = "user[217]"
**.user[217].app[1].destAddresses = "user[207]"
**.user[208].app[1].destAddresses = "user[216]"
**.user[216].app[1].destAddresses = "user[208]"
**.user[209].app[1].destAddresses = "user[215]"
**.user[215].app[1].destAddresses = "user[209]"
**.user[210].app[1].destAddresses = "user[214]"
**.user[214].app[1].destAddresses = "user[210]"
**.user[211].app[1].destAddresses = "user[213]"
**.user[213].app[1].destAddresses = "user[211]"

**.user[225].app[1].destAddresses = "user[249]"
**.user[249].app[1].destAddresses = "user[225]"
**.user[226].app[1].destAddresses = "user[248]"
**.user[248].app[1].destAddresses = "user[226]"
**.user[227].app[1].destAddresses = "user[247]"
**.user[247].app[1].destAddresses = "user[227]"
**.user[228].app[1].destAddresses = "user[246]"
**.user[246].app[1].destAddresses = "user[228]"
**.user[229].app[1].destAddresses = "user[245]"
**.user[245].app[1].destAddresses = "user[229]"
**.user[230].app[1].destAddresses = "user[244]"
**.user[244].app[1].destAddresses = "user[230]"
**.user[231].app[1].destAddresses = "user[243]"
**.user[243].app[1].destAddresses = "user[231]"
**.user[232].app[1].destAddresses = "user[242]"
**.user[242].app[1].destAddresses = "user[232]"
**.user[233].app[1].destAddresses = "user[241]"
**.user[241].app[1].destAddresses = "user[233]"
**.user[234].app[1].destAddresses = "user[240]"
**.user[240].app[1].destAddresses = "user[234]"
**.user[235].app[1].destAddresses = "user[239]"
**.user[239].app[1].destAddresses = "user[235]"
**.user[236].app[1].destAddresses = "user[238]"
**.user[238].app[1].destAddresses = "user[236]"

**.user[250].app[1].destAddresses = "user[274]"
**.user[274].app[1].destAddresses = "user[250]"
**.user[251].app[1].destAddresses = "user[273]"
**.user[273].app[1].destAddresses = "user[251]"
**.user[252].app[1].destAddresses = "user[272]"
**.user[272].app[1].destAddresses = "user[252]"
**.user[253].app[1].destAddresses = "user[271]"
**.user[271].app[1].destAddresses = "user[253]"
**.user[254].app[1].destAddresses = "user[270]"
**.user[270].app[1].destAddresses = "user[254]"
**.user[255].app[1].destAddresses = "user[269]"
**.user[269].app[1].destAddresses = "user[255]"
**.user[256].app[1].destAddresses = "user[268]"
**.user[268].app[1].destAddresses = "user[256]"
**.user[257].app[1].destAddresses = "user[267]"
**.user[267].app[1].destAddresses = "user[257]"
**.user[258].app[1].destAddresses = "user[266]"
**.user[266].app[1].destAddresses = "user[258]"
**.user[259].app[1].destAddresses = "user[265]"
**.user[265].app[1].destAddresses = "user[259]"
**.user[260].app[1].destAddresses = "user[264]"
**.user[264].app[1].destAddresses = "user[260]"
**.user[261].app[1].destAddresses = "user[263]"
**.user[263].app[1].destAddresses = "user[261]"

**.user[275].app[1].destAddresses = "user[299]"
**.user[299].app[1].destAddresses = "user[275]"
**.user[276].app[1].destAddresses = "user[298]"
**.user[298].app[1].destAddresses = "user[276]"
**.user[277].app[1].destAddresses = "user[297]"
**.user[297].app[1].destAddresses = "user[277]"
**.user[278].app[1].destAddresses = "user[296]"
**.user[296].app[1].destAddresses = "user[278]"
**.user[279].app[1].destAddresses = "user[295]"
**.user[295].app[1].destAddresses = "user[279]"
**.user[280].app[1].destAddresses = "user[294]"
**.user[294].app[1].destAddresses = "user[280]"
**.user[281].app[1].destAddresses = "user[293]"
**.user[293].app[1].destAddresses = "user[281]"
**.user[282].app[1].destAddresses = "user[292]"
**.user[292].app[1].destAddresses = "user[282]"
**.user[283].app[1].destAddresses = "user[291]"
**.user[291].app[1].destAddresses = "user[283]"
**.user[284].app[1].destAddresses = "user[290]"
**.user[290].app[1].destAddresses = "user[284]"
**.user[285].app[1].destAddresses = "user[289]"
**.user[289].app[1].destAddresses = "user[285]"
**.user[286].app[1].destAddresses = "user[288]"
**.user[288].app[1].destAddresses = "user[286]"

**.user[300].app[1].destAddresses = "user[324]"
**.user[324].app[1].destAddresses = "user[300]"
**.user[301].app[1].destAddresses = "user[323]"
**.user[323].app[1].destAddresses = "user[301]"
**.user[302].app[1].destAddresses = "user[322]"
**.user[322].app[1].destAddresses = "user[302]"
**.user[303].app[1].destAddresses = "user[321]"
**.user[321].app[1].destAddresses = "user[303]"
**.user[304].app[1].destAddresses = "user[320]"
**.user[320].app[1].destAddresses = "user[304]"
**.user[305].app[1].destAddresses = "user[319]"
**.user[319].app[1].destAddresses = "user[305]"
**.user[306].app[1].destAddresses = "user[318]"
**.user[318].app[1].destAddresses = "user[306]"
**.user[307].app[1].destAddresses = "user[317]"
**.user[317].app[1].destAddresses = "user[307]"
**.user[308].app[1].destAddresses = "user[316]"
**.user[316].app[1].destAddresses = "user[308]"
**.user[309].app[1].destAddresses = "user[315]"
**.user[315].app[1].destAddresses = "user[309]"
**.user[310].app[1].destAddresses = "user[314]"
**.user[314].app[1].destAddresses = "user[310]"
**.user[311].app[1].destAddresses = "user[313]"
**.user[313].app[1].destAddresses = "user[311]"

**.user[325].app[1].destAddresses = "user[349]"
**.user[349].app[1].destAddresses = "user[325]"
**.user[326].app[1].destAddresses = "user[348]"
**.user[348].app[1].destAddresses = "user[326]"
**.user[327].app[1].destAddresses = "user[347]"
**.user[347].app[1].destAddresses = "user[327]"
**.user[328].app[1].destAddresses = "user[346]"
**.user[346].app[1].destAddresses = "user[328]"
**.user[329].app[1].destAddresses = "user[345]"
**.user[345].app[1].destAddresses = "user[329]"
**.user[330].app[1].destAddresses = "user[344]"
**.user[344].app[1].destAddresses = "user[330]"
**.user[331].app[1].destAddresses = "user[343]"
**.user[343].app[1].destAddresses = "user[331]"
**.user[332].app[1].destAddresses = "user[342]"
**.user[342].app[1].destAddresses = "user[332]"
**.user[333].app[1].destAddresses = "user[341]"
**.user[341].app[1].destAddresses = "user[333]"
**.user[334].app[1].destAddresses = "user[340]"
**.user[340].app[1].destAddresses = "user[334]"
**.user[335].app[1].destAddresses = "user[339]"
**.user[339].app[1].destAddresses = "user[335]"
**.user[336].app[1].destAddresses = "user[338]"
**.user[338].app[1].destAddresses = "user[336]"

**.user[350].app[1].destAddresses = "user[374]"
**.user[374].app[1].destAddresses = "user[350]"
**.user[351].app[1].destAddresses = "user[373]"
**.user[373].app[1].destAddresses = "user[351]"
**.user[352].app[1].destAddresses = "user[372]"
**.user[372].app[1].destAddresses = "user[352]"
**.user[353].app[1].destAddresses = "user[371]"
**.user[371].app[1].destAddresses = "user[353]"
**.user[354].app[1].destAddresses = "user[370]"
**.user[370].app[1].destAddresses = "user[354]"
**.user[355].app[1].destAddresses = "user[369]"
**.user[369].app[1].destAddresses = "user[355]"
**.user[356].app[1].destAddresses = "user[368]"
**.user[368].app[1].destAddresses = "user[356]"
**.user[357].app[1].destAddresses = "user[367]"
**.user[367].app[1].destAddresses = "user[357]"
**.user[358].app[1].destAddresses = "user[366]"
**.user[366].app[1].destAddresses = "user[358]"
**.user[359].app[1].destAddresses = "user[365]"
**.user[365].app[1].destAddresses = "user[359]"
**.user[360].app[1].destAddresses = "user[364]"
**.user[364].app[1].destAddresses = "user[360]"
**.user[361].app[1].destAddresses = "user[363]"
**.user[363].app[1].destAddresses = "user[361]"

**.user[375].app[1].destAddresses = "user[399]"
**.user[399].app[1].destAddresses = "user[375]"
**.user[376].app[1].destAddresses = "user[398]"
**.user[398].app[1].destAddresses = "user[376]"
**.user[377].app[1].destAddresses = "user[397]"
**.user[397].app[1].destAddresses = "user[377]"
**.user[378].app[1].destAddresses = "user[396]"
**.user[396].app[1].destAddresses = "user[378]"
**.user[379].app[1].destAddresses = "user[395]"
**.user[395].app[1].destAddresses = "user[379]"
**.user[380].app[1].destAddresses = "user[394]"
**.user[394].app[1].destAddresses = "user[380]"
**.user[381].app[1].destAddresses = "user[393]"
**.user[393].app[1].destAddresses = "user[381]"
**.user[382].app[1].destAddresses = "user[392]"
**.user[392].app[1].destAddresses = "user[382]"
**.user[383].app[1].destAddresses = "user[391]"
**.user[391].app[1].destAddresses = "user[383]"
**.user[384].app[1].destAddresses = "user[390]"
**.user[390].app[1].destAddresses = "user[384]"
**.user[385].app[1].destAddresses = "user[389]"
**.user[389].app[1].destAddresses = "user[385]"
**.user[386].app[1].destAddresses = "user[388]"
**.user[388].app[1].destAddresses = "user[386]"

**.user[400].app[1].destAddresses = "user[424]"
**.user[424].app[1].destAddresses = "user[400]"
**.user[401].app[1].destAddresses = "user[423]"
**.user[423].app[1].destAddresses = "user[401]"
**.user[402].app[1].destAddresses = "user[422]"
**.user[422].app[1].destAddresses = "user[402]"
**.user[403].app[1].destAddresses = "user[421]"
**.user[421].app[1].destAddresses = "user[403]"
**.user[404].app[1].destAddresses = "user[420]"
**.user[420].app[1].destAddresses = "user[404]"
**.user[405].app[1].destAddresses = "user[419]"
**.user[419].app[1].destAddresses = "user[405]"
**.user[406].app[1].destAddresses = "user[418]"
**.user[418].app[1].destAddresses = "user[406]"
**.user[407].app[1].destAddresses = "user[417]"
**.user[417].app[1].destAddresses = "user[407]"
**.user[408].app[1].destAddresses = "user[416]"
**.user[416].app[1].destAddresses = "user[408]"
**.user[409].app[1].destAddresses = "user[415]"
**.user[415].app[1].destAddresses = "user[409]"
**.user[410].app[1].destAddresses = "user[414]"
**.user[414].app[1].destAddresses = "user[410]"
**.user[411].app[1].destAddresses = "user[413]"
**.user[413].app[1].destAddresses = "user[411]"

**.user[425].app[1].destAddresses = "user[449]"
**.user[449].app[1].destAddresses = "user[425]"
**.user[426].app[1].destAddresses = "user[448]"
**.user[448].app[1].destAddresses = "user[426]"
**.user[427].app[1].destAddresses = "user[447]"
**.user[447].app[1].destAddresses = "user[427]"
**.user[428].app[1].destAddresses = "user[446]"
**.user[446].app[1].destAddresses = "user[428]"
**.user[429].app[1].destAddresses = "user[445]"
**.user[445].app[1].destAddresses = "user[429]"
**.user[430].app[1].destAddresses = "user[444]"
**.user[444].app[1].destAddresses = "user[430]"
**.user[431].app[1].destAddresses = "user[443]"
**.user[443].app[1].destAddresses = "user[431]"
**.user[432].app[1].destAddresses = "user[442]"
**.user[442].app[1].destAddresses = "user[432]"
**.user[433].app[1].destAddresses = "user[441]"
**.user[441].app[1].destAddresses = "user[433]"
**.user[434].app[1].destAddresses = "user[440]"
**.user[440].app[1].destAddresses = "user[434]"
**.user[435].app[1].destAddresses = "user[439]"
**.user[439].app[1].destAddresses = "user[435]"
**.user[436].app[1].destAddresses = "user[438]"
**.user[438].app[1].destAddresses = "user[436]"

**.user[450].app[1].destAddresses = "user[474]"
**.user[474].app[1].destAddresses = "user[450]"
**.user[451].app[1].destAddresses = "user[473]"
**.user[473].app[1].destAddresses = "user[451]"
**.user[452].app[1].destAddresses = "user[472]"
**.user[472].app[1].destAddresses = "user[452]"
**.user[453].app[1].destAddresses = "user[471]"
**.user[471].app[1].destAddresses = "user[453]"
**.user[454].app[1].destAddresses = "user[470]"
**.user[470].app[1].destAddresses = "user[454]"
**.user[455].app[1].destAddresses = "user[469]"
**.user[469].app[1].destAddresses = "user[455]"
**.user[456].app[1].destAddresses = "user[468]"
**.user[468].app[1].destAddresses = "user[456]"
**.user[457].app[1].destAddresses = "user[467]"
**.user[467].app[1].destAddresses = "user[457]"
**.user[458].app[1].destAddresses = "user[466]"
**.user[466].app[1].destAddresses = "user[458]"
**.user[459].app[1].destAddresses = "user[465]"
**.user[465].app[1].destAddresses = "user[459]"
**.user[460].app[1].destAddresses = "user[464]"
**.user[464].app[1].destAddresses = "user[460]"
**.user[461].app[1].destAddresses = "user[463]"
**.user[463].app[1].destAddresses = "user[461]"

**.user[475].app[1].destAddresses = "user[499]"
**.user[499].app[1].destAddresses = "user[475]"
**.user[476].app[1].destAddresses = "user[498]"
**.user[498].app[1].destAddresses = "user[476]"
**.user[477].app[1].destAddresses = "user[497]"
**.user[497].app[1].destAddresses = "user[477]"
**.user[478].app[1].destAddresses = "user[496]"
**.user[496].app[1].destAddresses = "user[478]"
**.user[479].app[1].destAddresses = "user[495]"
**.user[495].app[1].destAddresses = "user[479]"
**.user[480].app[1].destAddresses = "user[494]"
**.user[494].app[1].destAddresses = "user[480]"
**.user[481].app[1].destAddresses = "user[493]"
**.user[493].app[1].destAddresses = "user[481]"
**.user[482].app[1].destAddresses = "user[492]"
**.user[492].app[1].destAddresses = "user[482]"
**.user[483].app[1].destAddresses = "user[491]"
**.user[491].app[1].destAddresses = "user[483]"
**.user[484].app[1].destAddresses = "user[490]"
**.user[490].app[1].destAddresses = "user[484]"
**.user[485].app[1].destAddresses = "user[489]"
**.user[489].app[1].destAddresses = "user[485]"
**.user[486].app[1].destAddresses = "user[488]"
**.user[488].app[1].destAddresses = "user[486]"

**.user[500].app[1].destAddresses = "user[524]"
**.user[524].app[1].destAddresses = "user[500]"
**.user[501].app[1].destAddresses = "user[523]"
**.user[523].app[1].destAddresses = "user[501]"
**.user[502].app[1].destAddresses = "user[522]"
**.user[522].app[1].destAddresses = "user[502]"
**.user[503].app[1].destAddresses = "user[521]"
**.user[521].app[1].destAddresses = "user[503]"
**.user[504].app[1].destAddresses = "user[520]"
**.user[520].app[1].destAddresses = "user[504]"
**.user[505].app[1].destAddresses = "user[519]"
**.user[519].app[1].destAddresses = "user[505]"
**.user[506].app[1].destAddresses = "user[518]"
**.user[518].app[1].destAddresses = "user[506]"
**.user[507].app[1].destAddresses = "user[517]"
**.user[517].app[1].destAddresses = "user[507]"
**.user[508].app[1].destAddresses = "user[516]"
**.user[516].app[1].destAddresses = "user[508]"
**.user[509].app[1].destAddresses = "user[515]"
**.user[515].app[1].destAddresses = "user[509]"
**.user[510].app[1].destAddresses = "user[514]"
**.user[514].app[1].destAddresses = "user[510]"
**.user[511].app[1].destAddresses = "user[513]"
**.user[513].app[1].destAddresses = "user[511]"

**.user[525].app[1].destAddresses = "user[549]"
**.user[549].app[1].destAddresses = "user[525]"
**.user[526].app[1].destAddresses = "user[548]"
**.user[548].app[1].destAddresses = "user[526]"
**.user[527].app[1].destAddresses = "user[547]"
**.user[547].app[1].destAddresses = "user[527]"
**.user[528].app[1].destAddresses = "user[546]"
**.user[546].app[1].destAddresses = "user[528]"
**.user[529].app[1].destAddresses = "user[545]"
**.user[545].app[1].destAddresses = "user[529]"
**.user[530].app[1].destAddresses = "user[544]"
**.user[544].app[1].destAddresses = "user[530]"
**.user[531].app[1].destAddresses = "user[543]"
**.user[543].app[1].destAddresses = "user[531]"
**.user[532].app[1].destAddresses = "user[542]"
**.user[542].app[1].destAddresses = "user[532]"
**.user[533].app[1].destAddresses = "user[541]"
**.user[541].app[1].destAddresses = "user[533]"
**.user[534].app[1].destAddresses = "user[540]"
**.user[540].app[1].destAddresses = "user[534]"
**.user[535].app[1].destAddresses = "user[539]"
**.user[539].app[1].destAddresses = "user[535]"
**.user[536].app[1].destAddresses = "user[538]"
**.user[538].app[1].destAddresses = "user[536]"

**.user[550].app[1].destAddresses = "user[574]"
**.user[574].app[1].destAddresses = "user[550]"
**.user[551].app[1].destAddresses = "user[573]"
**.user[573].app[1].destAddresses = "user[551]"
**.user[552].app[1].destAddresses = "user[572]"
**.user[572].app[1].destAddresses = "user[552]"
**.user[553].app[1].destAddresses = "user[571]"
**.user[571].app[1].destAddresses = "user[553]"
**.user[554].app[1].destAddresses = "user[570]"
**.user[570].app[1].destAddresses = "user[554]"